192
Atoms. Timestep: 1600
O 1.17735 43.7419 0.621243
H 1.6384 43.0144 0.960957
H 1.04281 44.2314 1.4606
O 4.75809 5.00958 0.457346
H 4.79965 5.44357 44.7944
H 4.9108 4.04652 0.297644
O 5.54734 5.47408 3.07615
H 6.35385 4.9216 2.90601
H 5.06554 5.33708 2.15219
O 3.39974 4.6448 4.95494
H 3.88855 4.26646 5.69149
H 4.07175 4.84819 4.32824
O 0.494399 1.35348 2.76449
H 1.26179 1.60294 3.25544
H -0.0280808 0.896656 3.44259
O 1.56349 7.16314 4.8188
H 2.16941 6.44341 4.91138
H 0.704412 6.81164 4.97081
O 5.20771 2.11869 0.00911151
H 4.36494 1.64653 44.9198
H 5.77926 2.11505 44.3699
O 2.78389 1.93926 4.14071
H 3.06133 2.93056 4.30785
H 3.13898 1.51447 4.93391
O 1.90468 10.2809 5.29188
H 1.81921 9.34953 5.28744
H 2.42224 10.3938 4.52608
O 45.7288 6.16432 5.69026
H 45.5139 5.3493 6.16592
H 44.8653 6.47666 5.41772
O 40.6821 13.2846 41.4179
H 41.3348 13.7983 41.0131
H 40.836 12.4451 40.9461
O 3.073 0.918139 44.248
H 2.52148 1.52198 43.7693
H 2.41883 0.363698 44.8004
O 6.27262 0.594037 2.53687
H 6.00072 1.01795 1.63638
H 5.46886 0.620666 3.07996
O 13.5315 43.1227 11.727
H 12.9261 42.862 11.0424
H 12.9396 43.5004 12.3801
O 5.08351 3.52295 6.88296
H 6.02585 3.89259 6.69931
H 5.05129 3.00073 7.68158
O 43.7861 39.0898 16.293
H 43.9565 38.398 15.6171
H 44.5414 39.0032 16.8051
O 8.84065 1.57689 3.6382
H 7.9415 1.33818 3.48992
H 9.43746 0.929803 3.2577
O 11.3853 6.64272 43.9425
H 11.8884 7.40722 44.1416
H 11.3955 6.63864 43.0008
O 14.7218 8.00291 5.72489
H 14.8714 8.68588 6.39545
H 13.7454 7.90742 5.72581
O 11.5643 7.99142 6.44611
H 11.3072 7.25875 7.04926
H 10.7327 8.11655 5.95002
O 9.49781 1.76807 6.52125
H 9.30902 1.66792 5.5535
H 9.20052 0.961858 6.96851
O 8.45034 6.2702 4.34665
H 8.42368 5.53001 3.70319
H 7.64127 6.74744 4.17282
O 12.7961 43.405 4.40329
H 13.5258 43.5643 3.81221
H 13.0896 43.7958 5.25367
O 12.1553 1.58105 8.25537
H 11.4558 1.88609 7.7143
H 12.3957 2.27643 8.85779
O 7.89021 4.43136 6.33697
H 8.52939 3.72923 6.47283
H 8.07694 4.93762 5.4892
O 8.34841 4.22235 2.52162
H 8.48733 3.29868 2.923
H 8.97139 4.19342 1.82252
O 10.4051 4.0674 0.722181
H 10.7025 3.30009 0.259757
H 10.5376 4.76698 0.116276
O 10.384 43.475 3.00912
H 10.0768 42.5793 3.11015
H 11.2292 43.4769 3.56382
O 14.0841 0.49023 6.38019
H 14.9025 1.08385 6.32028
H 13.5347 0.972297 6.97339
O 11.2284 42.9128 9.06922
H 11.6582 42.4925 8.31609
H 11.4041 43.8738 8.94162
O 9.48673 6.60187 7.84461
H 8.96293 6.63358 8.63169
H 9.04179 5.97987 7.2646
O 8.78879 43.5454 7.82201
H 9.44081 43.2363 8.48205
H 8.4149 42.6945 7.50355
O 16.473 1.65928 6.36436
H 16.745 2.49292 5.94307
H 17.2108 1.11708 6.18098
O 19.4922 3.84696 0.757225
H 20.2945 4.14963 1.21888
H 18.7939 4.05316 1.40885
O 22.3579 4.79434 2.31446
H 23.2054 4.40086 2.14481
H 22.3097 5.74534 2.32666
O 21.1446 3.9859 4.8042
H 21.4088 4.32992 3.92686
H 21.4797 3.11325 4.88413
O 19.4154 0.518972 5.55327
H 20.205 0.916562 5.21007
H 19.386 43.7634 5.21
O 18.2247 4.04337 5.75387
H 18.6293 4.09179 6.67016
H 19.075 4.15814 5.25906
O 19.5881 3.11841 43.0818
H 18.7242 2.75244 43.1934
H 19.6977 3.51177 43.9707
O 22.4087 1.55769 4.93689
H 22.9756 1.40726 5.7058
H 22.9534 1.15606 4.20854
O 20.0071 3.87547 8.15935
H 20.5476 3.05017 8.28788
H 19.6121 4.05038 9.00594
O 16.7605 6.41522 4.53714
H 16.0822 6.97222 4.89407
H 17.0421 5.79239 5.15981
O 17.459 4.51934 2.3771
H 17.2101 3.93502 3.10205
H 17.2558 5.37912 2.80251
O 21.5543 1.58017 41.5747
H 21.0016 2.02244 42.3052
H 21.2864 0.66369 41.7161
O 24.2363 0.282268 3.17915
H 25.1855 0.590773 3.30605
H 24.2974 -0.663359 2.99162
O 23.7807 0.787336 7.58218
H 24.429 1.4307 7.70355
H 24.2836 44.1302 7.86351
O 22.6604 5.72336 6.54906
H 22.0599 5.97402 7.26702
H 22.0828 5.17133 6.02842
O 21.0218 1.31437 8.14848
H 21.9151 0.953681 8.09808
H 20.5543 0.773859 7.46669
O 26.9107 1.54766 3.33226
H 27.6783 1.27791 2.8601
H 27.1955 1.75328 4.19729
O 29.0081 7.54043 44.8475
H 29.3976 8.2262 44.2909
H 29.7396 6.83312 44.7876
O 30.5211 8.62256 1.93083
H 29.7372 8.37939 1.40933
H 30.099 9.19559 2.58293
O 29.3173 8.12397 8.33886
H 29.1606 8.86371 7.76089
H 28.9113 7.38043 7.88119
O 28.2345 2.31843 6.31284
H 28.9917 2.17709 6.82967
H 27.4634 2.35298 6.90004
O 27.3714 5.40475 5.85064
H 27.688 4.52952 5.75429
H 27.2099 5.6753 4.89727
O 30.7635 41.4607 0.40422
H 30.9255 41.8029 44.7224
H 30.4502 40.5272 0.241375
O 30.317 1.34063 7.78445
H 30.9481 1.58716 8.44641
H 30.2063 0.392207 7.96406
O 25.2148 4.99734 7.37398
H 24.3099 5.17674 7.15594
H 25.8739 5.27549 6.73278
O 25.0897 4.00741 2.06346
H 25.5841 3.14161 2.21177
H 25.5667 4.51369 1.3367
O 26.5404 5.40078 0.044932
H 26.2795 5.14736 44.3346
H 27.1478 6.15011 -0.0997499
O 29.1934 -0.338499 1.76491
H 29.8013 43.0777 1.92383
H 28.7689 43.4833 0.979695
O 31.6448 40.759 42.9097
H 31.5944 39.8704 42.5951
H 32.4683 41.1365 42.4901
O 33.9508 39.2259 15.8454
H 33.5691 38.3334 15.9833
H 33.433 39.7274 16.5375
O 31.7895 7.51904 9.26088
H 30.9352 7.79837 8.89193
H 31.7302 7.55117 10.2685
O 25.8095 2.47631 7.88915
H 25.5484 3.36087 7.59268
H 26.062 2.52332 8.76591
