192
Atoms. Timestep: 9050
O 3.89194 3.27182 6.77208
H 3.05106 3.78451 6.84793
H 4.35949 3.87192 6.18664
O 5.9821 1.81002 42.8484
H 5.19831 2.32594 42.6931
H 6.16531 1.32871 41.9981
O 6.60395 1.96821 0.73402
H 6.25926 1.47829 1.51507
H 6.31147 1.53639 45.1237
O 4.70276 4.1174 1.61065
H 5.29292 3.53276 1.06368
H 3.78257 3.95558 1.40232
O 4.71838 5.88545 5.7773
H 4.66432 6.3 4.91158
H 5.39795 6.35954 6.21147
O 3.51149 5.57349 40.9062
H 2.98785 6.35284 40.819
H 4.32786 5.78952 40.5126
O 3.35017 2.87611 42.2818
H 3.32096 3.77875 41.933
H 3.10341 2.35401 41.5607
O 4.84615 6.58942 3.07861
H 5.76985 6.71559 3.08852
H 4.73415 5.75199 2.61492
O 7.93589 7.6013 40.2566
H 8.84998 7.72847 40.5232
H 7.81009 8.29196 39.6549
O 6.05344 5.71877 39.5175
H 6.69021 6.3626 39.7889
H 6.01065 5.66096 38.5452
O 43.1411 5.5903 20.0351
H 42.9399 4.70695 19.8264
H 42.255 5.95624 20.2584
O 3.52871 1.0576 4.83347
H 3.83615 0.303549 5.31629
H 3.77025 1.7761 5.39431
O 5.72047 0.666842 3.1316
H 5.56375 -0.25046 2.97495
H 4.84779 0.96009 3.40556
O 17.6079 42.1367 43.5591
H 17.4929 41.9876 42.6316
H 17.8603 43.0615 43.6782
O 7.81451 6.80671 4.10117
H 8.57529 7.35482 3.93335
H 8.19329 5.92672 4.31389
O 5.17314 1.82091 22.1768
H 4.29225 1.26301 22.3274
H 5.81792 1.32277 22.7633
O 11.5761 42.6297 1.66629
H 11.9085 41.8714 1.16793
H 11.2335 42.2907 2.49223
O 10.2424 44.5372 42.6384
H 10.723 43.9533 42.0377
H 9.67998 0.855895 42.0148
O 13.7548 5.97271 4.44489
H 13.3525 5.28502 4.9826
H 13.6414 5.61468 3.54804
O 13.9403 3.05454 3.24575
H 13.211 2.98131 3.96254
H 13.8034 2.52528 2.44454
O 12.5018 4.15349 7.9465
H 11.9513 4.69327 8.57645
H 13.0021 3.48007 8.4501
O 9.15409 3.00178 1.61121
H 9.79744 2.32331 1.37354
H 8.29012 2.64428 1.24468
O 15.9501 40.8583 45.3221
H 16.6811 41.153 44.7363
H 16.3263 40.3324 0.865169
O 16.7454 2.82512 3.7817
H 15.7678 2.86563 3.69335
H 17.0111 3.75566 3.82621
O 9.29528 4.10992 4.09609
H 8.80461 3.402 4.54072
H 9.30751 3.77034 3.16206
O 13.8955 2.03465 0.773308
H 13.942 2.76942 45.3216
H 13.2185 1.4994 0.477568
O 11.3164 0.959887 0.165078
H 10.9575 0.860259 44.472
H 11.4105 44.2254 0.556875
O 13.0001 40.5277 0.311813
H 12.9248 39.6012 0.519407
H 13.9287 40.7969 0.337209
O 18.6922 0.419295 44.3924
H 18.3798 0.844544 0.0629471
H 18.8568 1.13379 43.7767
O 16.7585 1.92309 6.78458
H 16.4655 1.03259 6.58103
H 16.84 2.36681 5.93623
O 12.0909 3.72866 5.08637
H 12.1842 3.60266 6.02729
H 11.1493 3.85907 4.93012
O 14.3405 2.63782 9.30629
H 15.1914 2.54768 8.84466
H 14.4473 2.12479 10.083
O 17.8218 1.07771 1.57747
H 16.9351 1.29024 1.66954
H 18.2033 1.2426 2.46375
O 13.3954 11.312 4.17135
H 13.3024 10.3929 4.46072
H 13.8628 11.3054 3.36753
O 19.0315 7.61771 2.52125
H 19.751 7.35569 1.95397
H 18.5484 6.84872 2.75997
O 20.1061 8.22354 5.00948
H 20.2467 9.19796 5.05604
H 19.6955 8.11466 4.13447
O 21.3927 0.398589 9.37151
H 21.4703 -0.549254 9.28096
H 22.3534 0.696816 9.3445
O 18.498 6.39323 6.6467
H 19.0423 5.62091 6.83495
H 19.0459 7.1588 6.33793
O 14.4898 13.4753 5.79033
H 14.1129 12.6664 5.47473
H 13.7587 13.951 6.18309
O 24.2096 0.930419 9.49778
H 24.8087 0.762665 8.73524
H 24.81 0.819427 10.2247
O 20.5009 4.41025 7.53065
H 19.9271 3.64894 7.76735
H 20.9261 4.41291 8.3872
O 17.1497 5.61067 4.30001
H 16.2275 5.66956 4.43442
H 17.5776 5.94263 5.14856
O 12.9263 8.45187 4.75077
H 12.2223 8.25498 4.13771
H 13.4463 7.66121 4.66241
O 15.5149 15.5077 4.13609
H 15.2307 14.6481 4.40625
H 16.0557 15.2418 3.37546
O 28.3167 42.6535 8.03195
H 28.8105 42.2513 8.76534
H 28.32 42.1021 7.21485
O 26.8296 0.752796 8.43974
H 27.0158 1.51566 7.86901
H 27.3497 0.0131215 8.15597
O 22.5434 5.91668 6.20823
H 21.9398 5.14928 6.34871
H 21.9768 6.64791 6.01997
O 19.3666 2.32396 8.97693
H 18.6367 2.21039 8.28276
H 19.9329 1.57039 9.03568
O 28.4411 40.5268 6.09749
H 27.7841 40.2583 5.41441
H 28.4992 39.7354 6.69493
O 22.5125 8.4003 41.1115
H 23.1205 8.74064 40.5317
H 21.652 8.63788 40.6844
O 20.0775 8.43802 39.6826
H 19.2752 8.17329 40.1186
H 20.1315 8.00479 38.8515
O 33.7451 4.60565 3.39934
H 33.136 4.86308 4.12069
H 33.2551 4.21662 2.68781
O 30.3496 4.10285 7.41024
H 30.833 3.50545 8.04069
H 29.398 3.91572 7.5652
O 31.9529 5.29566 5.5315
H 31.316 4.93166 6.20854
H 31.5693 6.17866 5.30856
O 26.846 41.2817 1.58437
H 26.3847 40.9573 0.926627
H 27.467 41.9017 1.12509
O 31.9792 2.4324 8.97402
H 32.8751 2.74831 8.98081
H 31.8048 2.42991 9.94111
O 25.3568 6.08449 6.81503
H 24.4275 5.95464 6.55207
H 25.7981 6.36293 5.99928
O 21.1459 7.51272 0.804754
H 21.6446 8.14533 0.257286
H 21.3712 6.68925 0.335869
O 22.403 8.51446 43.8918
H 22.9729 9.2785 44.0767
H 22.3889 8.52824 42.9839
O 26.6622 39.7662 3.93884
H 26.4821 40.5701 3.38635
H 27.1825 39.3278 3.29707
O 28.5501 43.4401 0.727263
H 28.2855 0.021304 0.167739
H 29.5067 43.523 0.567706
O 22.9436 16.2589 3.61016
H 22.0774 16.2145 3.91659
H 22.8431 16.8877 2.92803
O 36.7235 4.82739 3.18621
H 35.815 5.24449 3.09299
H 36.4317 4.22939 3.82912
O 27.414 4.45239 7.94843
H 26.7413 4.83328 7.31416
H 26.898 4.27172 8.68591
