192
Atoms. Timestep: 9600
O 3.39832 3.00643 6.62247
H 2.68752 3.61357 6.66381
H 4.22911 3.54772 6.72617
O 5.2258 1.04331 43.5774
H 4.77328 1.60788 42.8756
H 6.00995 0.697138 43.2259
O 5.84295 2.17637 1.10558
H 5.40191 1.60436 1.69992
H 5.73295 1.71597 45.4902
O 4.64332 5.01499 1.26449
H 4.92553 4.07924 1.21253
H 5.26924 5.49331 0.702961
O 5.24725 5.02185 6.50516
H 5.32599 5.22328 5.56527
H 6.02411 5.50284 6.88737
O 4.42174 4.73276 39.6758
H 4.08495 5.61022 39.599
H 4.96981 4.71651 38.9146
O 4.24651 2.84441 41.8601
H 4.66364 3.68148 41.599
H 3.57992 2.74494 41.1241
O 5.52355 6.15743 3.62219
H 6.47521 6.40042 3.63054
H 5.31565 5.60262 2.85898
O 8.19777 7.33258 39.1693
H 8.63969 6.82898 39.9249
H 8.70092 8.1665 39.1292
O 6.0708 5.33239 37.5877
H 6.61952 6.0043 38.0452
H 6.68555 4.75046 37.1065
O 39.6557 8.2279 18.52
H 40.0986 9.04112 18.5491
H 40.4256 7.64217 18.3713
O 3.56928 0.85438 5.10533
H 3.5787 1.78137 5.35804
H 2.8706 0.537029 5.69047
O 4.51134 0.0712009 2.70576
H 5.07963 43.4039 2.61876
H 4.20472 0.223611 3.62959
O 17.723 41.4161 42.6574
H 17.4171 41.0098 41.8352
H 17.4509 42.3128 42.6749
O 8.16218 6.78841 4.20503
H 8.5116 7.66685 4.1091
H 8.92796 6.25474 4.13207
O 6.31801 -0.237271 26.5711
H 5.73821 -0.2267 25.856
H 6.87322 -0.931132 26.3509
O 11.6588 42.7702 0.893464
H 12.4747 42.3256 0.545385
H 11.0229 42.0493 0.747072
O 10.4567 2.4383 42.7617
H 10.928 1.89141 42.1537
H 9.99986 3.09322 42.2329
O 13.612 6.52379 4.26674
H 13.2162 5.80218 4.7526
H 13.3933 6.2676 3.36452
O 14.2486 3.28168 3.35091
H 13.6484 3.43713 4.0947
H 13.7018 3.05381 2.53484
O 13.4527 3.41044 7.931
H 13.1562 3.66365 8.76958
H 14.3064 3.81847 7.75651
O 8.60289 1.54903 2.42642
H 9.31087 1.39095 1.81292
H 7.87195 1.95671 1.89429
O 16.4587 40.3185 45.0661
H 17.0266 40.6515 44.3784
H 16.644 39.3564 -0.208027
O 16.6805 3.01794 4.32215
H 15.8207 2.83508 3.82455
H 16.859 3.91806 4.01321
O 9.90875 3.06721 4.52985
H 9.0404 3.36081 4.89401
H 9.67189 2.58564 3.76521
O 13.0923 3.15508 0.688813
H 13.0379 3.73696 45.1411
H 12.2882 2.6011 0.602563
O 11.0453 1.2701 0.303328
H 10.7498 1.39851 44.564
H 11.4042 0.333342 0.347798
O 13.602 40.6812 0.187851
H 13.3929 40.2176 44.5449
H 14.5741 40.5983 0.237669
O 16.9625 0.0772475 43.2801
H 17.5561 0.473681 43.9066
H 16.923 0.697321 42.5635
O 17.7681 2.05757 6.52641
H 17.3649 1.20303 6.6639
H 17.4264 2.41176 5.66136
O 12.5351 3.89681 5.47339
H 12.7857 3.5758 6.33632
H 11.6589 3.58152 5.19217
O 15.969 4.50089 7.41161
H 16.7245 3.91971 7.3597
H 16.144 5.256 6.85605
O 18.5025 1.12266 0.600533
H 18.9701 2.01555 0.667462
H 18.6065 0.699797 1.44703
O 11.6445 11.5977 4.42783
H 12.2302 10.8126 4.52803
H 11.4471 11.8612 3.52709
O 19.3456 8.0758 2.53889
H 19.4692 7.93983 1.60307
H 18.7857 7.33401 2.86834
O 20.9061 8.21748 4.76869
H 21.0265 9.12677 4.92623
H 20.5296 8.08919 3.86077
O 21.8891 0.390387 9.11066
H 22.8106 44.4461 9.44234
H 21.4367 -0.18306 9.68024
O 18.519 7.00041 6.84309
H 19.0227 6.26266 7.236
H 19.0903 7.46322 6.16597
O 13.1706 13.8029 5.32235
H 12.7257 13.0452 4.91995
H 12.5004 14.2594 5.83957
O 24.4696 0.388454 10.2256
H 25.2027 0.222823 9.59214
H 24.6288 1.23206 10.6146
O 19.8678 5.27611 8.33137
H 20.0608 4.33052 8.24025
H 19.5606 5.37154 9.21068
O 16.8419 6.11539 4.57969
H 15.9699 6.39994 4.43847
H 17.156 6.49834 5.39639
O 13.3135 9.45366 4.8713
H 13.7016 9.18385 5.72162
H 13.0326 8.60339 4.49027
O 16.2081 14.5432 5.55846
H 15.919 13.8827 6.17526
H 15.4316 14.557 5.02429
O 28.9251 42.3623 7.76388
H 29.8336 42.1371 7.74345
H 28.5432 41.495 7.52917
O 26.8149 0.132627 8.08446
H 26.6615 -0.00778677 7.13929
H 27.6685 43.7871 8.21006
O 22.916 6.5787 6.56649
H 22.4073 6.68068 7.37123
H 22.4196 7.09651 5.90672
O 20.1877 2.48604 7.99905
H 19.6947 2.2297 7.19959
H 21.0062 1.89423 8.12119
O 28.0914 39.8496 6.91462
H 27.6396 39.9064 6.00315
H 27.7214 39.0848 7.29897
O 21.9934 8.55322 41.0205
H 22.8454 8.15313 40.6427
H 21.2989 8.22958 40.4358
O 19.6566 7.59232 39.6084
H 19.5449 7.23701 38.6966
H 18.8555 7.49703 40.1445
O 33.5939 3.47866 3.98044
H 33.2656 4.29229 4.44128
H 33.3645 3.70721 3.07872
O 30.0125 4.9014 7.71936
H 30.5422 4.20225 8.13906
H 29.0577 4.65425 7.84585
O 32.1533 5.3747 5.90313
H 31.1693 5.32117 6.13328
H 32.3789 6.24764 6.2257
O 27.7811 41.8895 2.43274
H 28.6182 42.1385 1.89624
H 27.1332 42.2452 1.95807
O 32.5053 3.49973 8.08872
H 32.7912 3.92174 7.26992
H 33.2872 3.33419 8.61197
O 25.6209 6.06328 6.32886
H 24.8476 6.41489 6.75586
H 25.2405 5.91712 5.47821
O 19.4904 8.40321 -0.0946762
H 20.2197 8.80537 44.6324
H 18.7661 9.00321 44.9972
O 21.6521 9.29487 43.7458
H 22.351 8.74437 44.0302
H 21.6676 9.14054 42.858
O 27.107 40.03 4.33543
H 27.2302 40.8556 3.9409
H 26.8714 39.4048 3.67079
O 28.9184 43.0488 44.9405
H 29.3213 42.2249 44.5958
H 29.5403 -0.449896 44.6741
O 21.6778 14.778 5.88506
H 22.1736 14.0564 5.57731
H 20.9779 14.3327 6.26322
O 36.6806 2.97814 4.18031
H 35.717 3.16259 4.1036
H 36.7993 2.08498 4.2471
O 27.4255 4.46865 7.62411
H 26.8482 5.05531 7.13165
H 27.1628 3.50958 7.50842
