192
Atoms. Timestep: 6450
O 1.9366 3.09804 6.77095
H 2.26263 3.17745 7.69392
H 1.72753 4.03101 6.51184
O 5.04499 1.81427 43.5634
H 4.36096 2.48658 43.3977
H 5.17023 1.3439 42.7536
O 5.32124 1.89514 1.00228
H 4.70752 1.44276 1.58653
H 5.21057 1.54965 0.138789
O 5.09192 4.71927 1.94874
H 5.9597 4.98101 2.18904
H 5.0816 3.79384 1.7253
O 1.39924 5.90053 5.93122
H 1.7991 6.06028 5.06267
H 1.20549 6.74765 6.38542
O 3.83086 5.91764 44.6682
H 4.59001 5.80417 0.0507776
H 3.97252 6.8409 44.2874
O 3.15002 3.80142 42.7899
H 3.42519 4.47056 43.5065
H 2.22495 3.64341 42.8403
O 2.60333 5.61893 3.13866
H 3.22496 4.87498 2.96263
H 2.79906 6.25082 2.48049
O 5.41618 10.8148 43.7529
H 5.28375 11.03 42.8075
H 5.0181 11.5902 44.1454
O 5.94232 7.96007 44.4212
H 6.76131 7.86999 44.8795
H 5.80589 8.9266 44.3639
O 11.9215 36.9164 27.4969
H 11.683 36.0281 27.2339
H 11.1116 37.1937 27.9373
O 2.04693 0.955419 4.90377
H 1.10046 1.08111 4.73586
H 2.0674 1.71842 5.51462
O 3.64631 0.678794 2.72785
H 3.75636 43.8347 2.64369
H 2.99555 0.84353 3.45072
O 16.5131 42.279 6.06699
H 16.7764 41.7414 6.80672
H 16.6198 43.2187 6.32854
O 7.7868 5.49639 2.75667
H 8.09549 6.24197 3.28316
H 8.23915 4.74103 3.16103
O 46.9918 12.9982 2.70412
H 46.6945 13.0534 1.73583
H 47.3789 12.1474 2.72933
O 13.2294 43.0989 -0.0269486
H 13.436 42.4797 0.690787
H 13.6078 42.5703 44.4352
O 10.376 1.28723 42.7661
H 10.5958 1.40429 41.8235
H 9.41251 1.32272 42.657
O 15.821 6.49424 4.37015
H 15.394 7.17409 4.87366
H 15.1047 5.94836 4.03289
O 13.383 4.52313 3.93157
H 12.4833 4.6593 4.3441
H 13.112 4.02954 3.11461
O 7.44425 1.99413 6.00288
H 6.49844 1.77381 5.82234
H 7.89507 1.10459 6.03385
O 8.7242 1.2961 1.85791
H 9.37341 1.40148 1.16172
H 7.85744 1.36797 1.47959
O 16.594 40.8671 3.59386
H 16.5904 41.3678 4.47273
H 17.4523 40.4771 3.50931
O 14.3029 2.21665 5.57446
H 14.1396 2.59281 4.67349
H 14.0039 2.95941 6.14756
O 8.77549 3.26167 3.91217
H 8.12925 2.88253 4.52379
H 8.89928 2.5333 3.28911
O 13.0246 2.65939 1.65118
H 13.8575 2.32427 1.24818
H 12.2367 2.30403 1.06377
O 11.3461 1.23806 0.234756
H 11.2381 1.42343 44.4547
H 11.7636 0.335619 0.382431
O 14.2684 41.0943 2.05468
H 13.8724 40.3691 2.5374
H 15.1977 41.0158 2.33293
O 17.2623 0.956713 6.37663
H 17.688 1.20814 5.5536
H 16.3869 1.38582 6.23544
O 11.913 43.6893 5.78684
H 12.5135 42.9237 5.64743
H 12.5044 0.332505 5.86782
O 10.8688 4.67859 5.08063
H 10.7454 4.48988 5.98543
H 10.2487 4.051 4.70785
O 9.1857 44.0383 5.96288
H 10.0824 43.97 5.5761
H 9.09257 43.3718 6.62539
O 18.1514 2.35287 3.83859
H 18.3708 3.26523 3.96297
H 18.8311 2.02488 3.27947
O 18.2484 9.28578 0.948241
H 18.9221 9.13834 0.312252
H 18.2195 8.53278 1.52996
O 24.3848 7.16912 2.63466
H 24.0603 6.70963 1.85032
H 25.3363 6.96741 2.56049
O 23.3466 6.47891 5.14225
H 23.2189 7.41021 5.27584
H 23.4546 6.53852 4.10584
O 20.6155 0.445248 8.96852
H 20.725 -0.115966 9.70443
H 21.4394 0.521738 8.56695
O 20.1263 6.34835 6.21754
H 20.0082 5.9736 7.14974
H 21.0564 6.29776 5.98677
O 16.2322 11.9883 1.20503
H 15.3523 11.6737 1.06518
H 16.715 11.1593 1.41225
O 23.4856 43.8746 9.38716
H 24.2322 43.6774 8.77835
H 23.955 43.7498 10.208
O 19.2757 5.10974 8.38703
H 19.1378 4.08054 8.40489
H 19.6104 5.30188 9.28082
O 18.2683 5.2264 4.53153
H 17.4249 5.6381 4.66917
H 18.8606 5.47501 5.21646
O 17.8803 6.48839 1.74281
H 18.3395 5.94586 2.39299
H 16.9946 6.36696 2.09197
O 16.9067 14.4664 2.5437
H 16.9819 13.5667 2.24452
H 15.9947 14.7509 2.70305
O 28.4192 42.2101 7.56876
H 28.1484 41.816 6.7012
H 28.8767 41.5861 8.07565
O 26.4234 43.6589 9.08375
H 26.9297 0.312074 9.25263
H 27.0259 43.0699 8.57609
O 24.7224 6.03039 8.0546
H 24.6195 6.95032 7.96186
H 24.4554 5.77338 7.16158
O 19.0694 2.42091 8.22253
H 18.3181 1.97788 7.75207
H 19.5618 1.79782 8.70757
O 28.3358 41.196 5.11206
H 27.8749 41.374 4.25754
H 29.254 40.9865 4.9235
O 23.1334 7.64231 42.2124
H 22.184 7.85725 42.1398
H 23.5393 8.47298 42.3911
O 23.694 10.4802 42.5609
H 24.3918 10.7581 42.0061
H 23.0813 11.1739 42.7055
O 31.0867 7.38889 4.15477
H 30.5673 6.80376 4.67854
H 31.7472 6.83999 3.74213
O 30.0374 3.74792 7.86151
H 30.8821 3.39195 8.00967
H 29.3701 3.38464 8.39073
O 29.7428 5.29916 5.50017
H 30.0425 4.81561 6.27612
H 28.891 5.02303 5.26091
O 25.8942 43.44 0.853498
H 25.0154 43.2907 46.1015
H 26.0481 44.4355 0.858748
O 32.8135 2.45749 7.77699
H 32.9153 1.52524 7.71821
H 33.7283 2.69522 7.99397
O 26.3687 4.6102 10.2401
H 26.3457 5.09015 9.43935
H 25.4332 4.80623 10.4598
O 23.2711 6.05831 0.335533
H 22.8783 6.8344 -0.0405343
H 23.6159 5.5504 44.7696
O 23.9171 5.22492 43.0228
H 24.7765 4.91378 42.793
H 23.7638 6.04658 42.4814
O 27.182 41.4132 2.46873
H 26.4062 40.8781 2.28876
H 27.0391 42.2696 1.98967
O 23.6167 41.8278 44.3162
H 22.9763 41.1841 44.5609
H 24.2579 41.3437 43.7933
O 28.7923 23.8676 37.7585
H 29.653 23.7261 37.4712
H 28.7328 23.2911 38.4979
O 30.202 9.71599 2.5622
H 30.6099 8.97838 3.03799
H 30.8534 9.74272 1.7912
O 27.7961 2.0491 10.2098
H 27.1587 2.80785 10.0308
H 27.927 2.02251 11.1078
