192
Atoms. Timestep: 8400
O 3.57853 3.05617 6.37389
H 3.53025 3.18584 7.29028
H 3.56865 3.95768 6.05933
O 5.04412 1.38523 44.1408
H 4.29216 1.79488 43.7316
H 5.30534 0.648355 43.6237
O 6.63568 2.81094 0.605192
H 6.37972 2.44731 1.4289
H 6.22715 2.35409 45.0404
O 4.31869 5.08539 0.704905
H 5.16304 4.70245 0.999045
H 4.12522 4.48161 -0.00844367
O 3.52236 5.83929 5.28346
H 3.97655 6.28457 4.56144
H 2.98643 6.56283 5.53062
O 3.0818 5.28991 41.9868
H 2.86096 5.83243 42.7798
H 3.87926 5.79385 41.6023
O 2.9806 2.71998 42.7712
H 3.10142 3.62293 42.4602
H 2.11821 2.71528 43.2398
O 4.78127 7.10024 3.18013
H 5.77847 7.07594 3.25632
H 4.50366 6.49582 2.40296
O 8.08905 8.2694 41.5112
H 8.36377 8.86544 42.2196
H 8.33996 8.70497 40.712
O 5.42334 7.16485 41.1108
H 6.25308 7.46066 41.465
H 5.57615 7.22596 40.1764
O 0.026662 2.36707 21.8486
H 0.307698 3.25628 22.0646
H 0.877925 1.94822 21.6977
O 5.03566 1.10398 5.13252
H 4.08687 1.14369 4.87688
H 5.05383 1.82116 5.81362
O 5.81579 0.685403 2.53142
H 5.47771 -0.196192 2.27284
H 5.57044 0.763163 3.48968
O 17.4945 42.7181 0.0168459
H 18.3221 42.7782 -0.398117
H 17.7255 43.0681 0.887418
O 7.4161 6.85038 3.76762
H 8.13653 7.18442 4.31486
H 7.83439 6.02772 3.50144
O 3.85438 4.23125 17.0996
H 3.06088 3.84771 16.6
H 3.96584 3.52449 17.8708
O 11.0531 42.1204 1.56902
H 11.6727 41.4683 1.18584
H 11.3913 42.0905 2.4544
O 10.9554 42.8658 43.0308
H 10.1274 42.5165 42.6987
H 11.6203 42.3223 42.621
O 14.6878 6.25399 3.65054
H 14.1442 5.79636 4.30687
H 14.8016 5.57611 2.93524
O 14.3747 2.94531 3.35514
H 13.6831 3.47271 3.82435
H 13.9597 2.45511 2.6719
O 11.729 2.99156 7.516
H 11.5658 3.31621 8.39138
H 11.9555 2.0525 7.65422
O 9.37198 3.04447 1.23133
H 9.65418 2.12578 0.99605
H 8.44954 3.0549 0.914067
O 15.4792 40.8131 44.8583
H 16.2367 41.4055 -0.295431
H 15.4634 40.571 43.9545
O 16.0635 2.05345 5.42812
H 15.5511 2.29714 4.61859
H 16.6924 2.77234 5.51994
O 9.28746 4.70342 3.50692
H 8.97539 4.02585 4.14374
H 9.36747 4.139 2.7102
O 13.4242 2.07408 0.760629
H 14.0721 1.80879 0.160991
H 12.6919 1.49185 0.564695
O 10.8553 0.573981 0.341982
H 10.8007 0.399287 44.5828
H 10.9388 43.8279 0.663564
O 13.2033 40.3126 1.11806
H 12.9116 39.5866 0.588611
H 13.9757 40.658 0.677392
O 18.9657 44.1945 2.25504
H 18.7565 0.992472 2.52724
H 19.3766 43.7677 3.01964
O 15.4349 44.4371 7.68146
H 15.9215 44.961 8.31091
H 15.6436 0.733673 6.8232
O 12.6124 4.64804 5.07829
H 12.7958 4.35474 5.99133
H 11.6179 4.6006 5.04322
O 12.8486 0.66031 8.36866
H 13.7764 0.545577 8.20011
H 12.4071 43.9562 8.18784
O 18.2323 2.89465 2.36611
H 18.2116 3.51666 3.15101
H 17.5278 3.15544 1.84132
O 15.4448 10.9569 4.26705
H 14.9912 10.741 5.04116
H 14.95 10.42 3.64234
O 20.1515 6.56432 3.01646
H 20.6087 6.29759 2.18491
H 19.2705 6.24796 3.10781
O 21.143 6.96348 5.46857
H 21.2091 7.93793 5.34361
H 20.861 6.54714 4.59832
O 20.714 44.0423 8.8603
H 20.002 43.9456 9.47305
H 21.5425 43.9067 9.36382
O 18.444 6.25283 6.31519
H 18.5347 5.71268 7.12209
H 19.3195 6.62635 6.19426
O 16.3567 13.6123 4.00065
H 15.9017 12.7262 4.14142
H 17.0894 13.6619 4.64121
O 23.0556 0.555613 10.3854
H 23.7222 0.965747 9.78589
H 23.6308 0.0899799 11.0321
O 20.2595 4.91078 8.28445
H 20.0408 3.98256 7.97164
H 20.3115 5.00317 9.24309
O 17.622 5.32153 4.0417
H 16.7641 5.73743 3.87318
H 17.9358 5.64795 4.94556
O 13.7608 9.11952 3.77192
H 12.9166 9.04338 3.33304
H 14.0637 8.20025 3.81895
O 14.5309 16.077 4.08441
H 14.9352 15.2253 3.88907
H 14.7696 16.4378 3.23254
O 27.2021 43.3616 7.68323
H 27.2388 42.4648 7.99843
H 27.326 43.2475 6.71463
O 25.277 1.06026 8.2371
H 25.9557 1.68231 7.93762
H 25.7204 0.237083 8.18308
O 23.1439 5.73408 7.36971
H 22.3465 5.21164 7.68568
H 22.709 6.35649 6.76456
O 20.2089 2.26489 7.58992
H 20.5173 2.00599 6.69285
H 20.665 1.62153 8.17282
O 27.8448 41.2082 5.92627
H 27.5275 41.0539 5.0803
H 28.6074 40.6668 6.08253
O 22.2976 8.20854 41.803
H 22.8804 7.99618 41.061
H 21.6527 8.71287 41.3742
O 20.9538 9.20308 39.6496
H 20.3369 8.67992 39.1517
H 20.5423 10.0781 39.7631
O 33.6081 5.50253 3.10727
H 33.2008 5.56981 3.98278
H 32.8615 5.2078 2.60215
O 30.3103 4.08623 7.17763
H 30.6673 3.65208 7.94747
H 29.3868 3.8037 7.06157
O 31.687 5.32165 5.25956
H 31.3359 4.66047 5.89213
H 31.0333 5.96514 5.44279
O 26.3594 40.7282 0.746834
H 25.6275 40.9548 0.260115
H 27.1562 41.214 45.4977
O 31.0364 2.44193 9.3975
H 30.4699 1.89967 9.97764
H 31.575 2.83924 10.0596
O 25.7326 5.6085 6.48658
H 24.8551 5.64497 6.86489
H 25.5581 5.63634 5.52519
O 21.8238 5.8831 0.968242
H 22.4845 6.48147 1.15746
H 21.812 5.92896 -0.00342077
O 22.9242 7.60399 44.2941
H 23.8352 7.6348 44.4541
H 22.8199 7.89344 43.4223
O 27.136 40.5532 3.24352
H 27.4955 39.7977 2.84428
H 26.7749 40.9822 2.45558
O 27.1941 43.5908 1.7581
H 27.3861 -0.392338 2.69465
H 26.9943 0.38925 1.46218
O 24.3444 18.2037 0.813974
H 25.2022 17.7796 0.998964
H 23.8245 17.8278 46.7504
O 36.0446 7.06738 2.20337
H 35.1631 6.78344 2.32207
H 36.6088 6.62908 2.78001
O 27.5309 3.87068 7.57989
H 26.8247 4.33704 7.07718
H 27.4991 4.24095 8.42107
