192
Atoms. Timestep: 7850
O 3.17866 3.44149 6.73528
H 3.6663 4.01629 7.36292
H 2.84934 4.0122 6.01503
O 4.36941 1.18901 43.481
H 3.68591 1.73992 43.224
H 4.80828 0.909255 42.6654
O 5.93174 2.31466 0.798198
H 5.69754 1.64261 1.42627
H 5.8171 1.97342 45.1016
O 5.7824 5.71014 0.745607
H 6.46622 5.42045 1.34158
H 5.25441 4.95869 0.51613
O 2.70631 5.1823 4.53196
H 3.38159 5.80511 4.2791
H 1.89702 5.70905 4.73402
O 3.4675 5.80655 43.2983
H 4.17615 6.04546 43.8806
H 3.61835 6.52141 42.639
O 2.61521 3.18125 42.2595
H 2.86489 4.03222 42.6736
H 1.7387 3.23523 42.0029
O 4.93342 6.46163 3.6139
H 5.792 6.81172 4.07363
H 4.98114 6.65218 2.6548
O 7.27754 8.49402 42.872
H 7.98657 8.72388 42.3031
H 7.66993 7.90603 43.5166
O 4.51972 7.8915 41.6577
H 5.34789 7.94331 42.1736
H 4.8185 7.85198 40.7616
O 3.46687 43.8388 23.4609
H 3.57585 42.9719 23.004
H 2.59562 43.7655 23.7996
O 4.49552 1.06947 5.4131
H 4.41944 0.418825 6.05684
H 4.15688 1.90965 5.68828
O 6.12107 0.887024 3.29923
H 7.04692 1.22353 3.27892
H 5.83474 1.05604 4.22903
O 17.8538 42.2815 2.20644
H 18.7458 42.2525 1.90187
H 17.6753 43.1564 2.58935
O 8.02966 7.09035 3.04695
H 8.48381 7.69676 2.44738
H 8.53743 6.27247 3.04703
O 2.7144 6.29513 12.7304
H 2.04779 5.87366 12.2356
H 3.48132 5.82771 12.4448
O 11.1688 41.9817 1.94775
H 12.0792 41.6523 1.94743
H 10.919 41.8564 2.86246
O 10.8212 43.786 43.1401
H 10.1815 43.2146 42.7051
H 11.6138 43.5688 42.6041
O 15.6051 6.52055 3.8521
H 14.704 6.64602 4.00549
H 15.6731 5.67801 3.35713
O 14.3205 3.03972 3.65565
H 13.5585 3.49094 4.083
H 13.9706 2.72345 2.74764
O 10.2117 2.76691 6.40969
H 9.64077 2.81003 7.17141
H 10.7517 1.98614 6.55853
O 8.55854 1.92864 1.56005
H 9.04695 1.3437 0.917797
H 7.77142 2.284 1.11659
O 15.997 41.7735 0.419527
H 16.7867 41.9543 1.04113
H 16.3039 41.7536 44.7284
O 15.131 0.96997 5.63122
H 14.8438 1.7277 5.08845
H 15.5548 1.34045 6.41285
O 9.26379 4.12269 3.3125
H 9.13685 3.71907 4.15745
H 8.92681 3.41628 2.69492
O 13.0643 2.41895 1.10558
H 13.4366 2.14795 0.216246
H 12.1716 1.98665 1.07015
O 10.7085 0.35008 0.60172
H 10.8272 0.222043 44.8048
H 10.7332 43.704 1.20665
O 13.9526 40.7514 1.80165
H 14.351 39.9482 2.0778
H 14.5948 41.2786 1.27482
O 17.6925 0.645696 3.53091
H 17.9636 1.58467 3.38988
H 16.8367 0.586345 3.95202
O 13.7388 42.5416 6.66304
H 13.9229 41.7687 6.12011
H 14.3815 43.1454 6.26543
O 12.1258 4.34161 4.52614
H 11.6996 3.95089 5.30674
H 11.4542 4.33873 3.83683
O 11.336 0.474662 7.39247
H 11.8725 44.0535 6.84252
H 11.8565 0.532552 8.19891
O 18.1765 3.18016 3.21513
H 18.1682 3.9015 3.90871
H 18.0406 3.55149 2.34438
O 16.7745 11.4805 3.83653
H 16.3656 11.4614 4.67162
H 16.8367 10.5942 3.46896
O 21.5514 5.49889 3.47244
H 22.2678 5.36803 2.82609
H 20.726 5.29926 2.98671
O 21.5658 7.63543 5.29865
H 20.9684 8.39238 5.05918
H 21.4251 7.03341 4.58121
O 20.7183 43.9492 8.87725
H 20.1753 44.3274 9.59287
H 21.598 43.7624 9.28465
O 19.3278 6.39159 7.08852
H 19.7308 5.7339 7.64445
H 20.021 7.00646 6.9931
O 16.5032 13.9544 2.48121
H 16.7131 13.1043 2.81579
H 17.3739 14.3638 2.4889
O 23.1435 43.9033 10.4141
H 23.7701 0.342867 9.9134
H 23.1024 44.3787 11.2537
O 19.7314 4.13894 8.8704
H 20.0494 3.42467 8.32926
H 19.0723 3.85785 9.49896
O 18.0515 5.47688 4.65683
H 17.167 5.88616 4.83521
H 18.5703 5.70765 5.47448
O 16.6979 8.96377 2.55188
H 16.6131 8.73432 1.61738
H 16.5675 8.12822 3.00937
O 14.7489 15.5091 4.24581
H 15.0749 14.8005 3.66488
H 13.9907 15.9035 3.83335
O 26.3046 42.5283 8.03874
H 26.8927 42.3533 7.35046
H 26.0104 41.646 8.38857
O 25.3804 0.99226 8.96929
H 25.78 1.7637 8.54888
H 25.9243 0.240737 8.83601
O 23.3786 6.91831 7.58162
H 22.9852 6.2768 8.10879
H 22.6744 7.08115 6.986
O 20.9923 1.96883 7.26379
H 20.8292 1.79045 6.38843
H 21.0078 1.11747 7.71727
O 27.6987 41.1103 5.70988
H 27.3226 40.8732 4.87199
H 28.573 41.2151 5.39539
O 22.3939 7.72213 41.689
H 21.6052 7.28101 41.3265
H 22.4331 8.63858 41.2098
O 21.672 9.98196 40.1153
H 21.1101 9.72791 39.3664
H 22.0168 10.8408 39.9561
O 33.2421 5.95448 2.9945
H 32.5116 5.90666 3.59229
H 33.5198 5.12874 2.64171
O 29.8433 3.79805 7.15158
H 30.3397 3.19234 7.72506
H 28.9425 3.57601 7.2385
O 31.3564 5.58398 5.15913
H 31.0165 4.67263 5.43149
H 30.8486 6.16193 5.67499
O 26.0741 41.1575 0.672479
H 26.1186 40.8298 45.0168
H 25.8653 42.0963 0.545985
O 31.3446 2.72229 9.4069
H 31.3563 1.85455 9.7821
H 32.3068 2.7638 9.23413
O 25.5379 5.53217 6.34108
H 24.7395 6.01594 6.61059
H 25.776 5.81264 5.45913
O 22.399 4.93731 0.678189
H 22.4248 4.01015 0.3113
H 22.7263 5.56146 -0.0277487
O 23.2799 6.96251 44.1449
H 24.1791 6.71627 43.9449
H 22.9594 7.22317 43.3022
O 27.4889 40.6419 2.82901
H 26.6488 40.4261 2.50162
H 27.6682 41.4657 2.47317
O 25.9413 43.9418 1.14241
H 25.3921 0.55359 0.801255
H 25.9528 44.0978 2.05687
O 25.6655 19.7069 43.689
H 24.7787 19.7928 44.1441
H 25.9248 20.6491 43.5692
O 34.6832 8.4659 2.03063
H 34.2487 7.8085 2.64552
H 35.1352 8.99766 2.72355
O 26.8985 3.73937 7.9122
H 26.3852 4.3506 7.32165
H 26.8342 4.08076 8.81879
