192
Atoms. Timestep: 8150
O 3.46642 3.27107 6.63478
H 2.69956 3.17849 7.25224
H 3.30292 3.92053 5.9879
O 4.61132 0.956593 43.8949
H 4.04317 1.58779 43.4485
H 5.16072 0.468093 43.2546
O 5.90764 2.89553 0.468718
H 5.64167 2.41159 1.27023
H 5.77932 2.20939 -0.252085
O 5.02856 5.34971 1.10162
H 5.84329 4.81897 1.15203
H 4.56616 4.62066 0.665337
O 2.89052 5.3533 4.70721
H 3.66091 5.84799 4.39374
H 2.10512 5.90111 4.66266
O 3.22534 5.52795 42.655
H 3.11629 6.0112 43.4621
H 3.75757 6.00839 42.0171
O 2.81826 2.76502 42.7264
H 3.06199 3.69161 42.7781
H 1.94266 2.72703 42.3949
O 4.73321 6.92744 3.43687
H 5.69078 6.87686 3.5592
H 4.58965 6.45833 2.54543
O 7.81176 8.46778 42.1414
H 8.5401 7.99418 41.8116
H 8.1785 9.24978 42.4338
O 5.11836 7.50165 41.219
H 5.89836 7.80835 41.7373
H 4.75852 8.28024 40.7727
O 1.51701 1.22398 22.5726
H 2.38398 45.5199 22.1994
H 1.58598 44.4323 22.7842
O 5.04191 0.933005 5.23461
H 4.10707 0.985869 5.3966
H 5.36997 1.59295 5.84582
O 5.8559 1.14121 2.57478
H 6.79674 1.34706 2.81909
H 5.39566 0.87505 3.39478
O 17.9489 42.396 0.940523
H 18.7921 42.0441 1.06977
H 17.8525 43.1426 1.55986
O 8.01184 7.11363 3.24046
H 8.49712 7.89387 3.54213
H 8.60136 6.36646 3.33519
O 3.3599 5.04757 15.1066
H 3.69249 5.45016 15.9365
H 2.49181 5.42411 15.044
O 11.1074 41.9955 1.67577
H 11.9283 41.4647 1.72099
H 10.5187 41.4884 1.12823
O 10.9518 43.086 43.1683
H 10.21 42.4375 43.2539
H 11.5256 42.8259 42.435
O 14.7568 5.90159 3.95992
H 13.9876 5.61825 4.54216
H 14.7717 5.16037 3.37057
O 14.3828 3.12117 3.44409
H 13.4731 3.43606 3.68055
H 14.2077 2.68115 2.60555
O 11.3994 2.78868 6.77471
H 10.6486 3.07263 7.24008
H 11.7519 1.94911 7.1625
O 8.83336 2.73131 1.48245
H 9.44701 2.31979 0.891118
H 8.03776 3.04258 0.972001
O 15.4202 41.3471 -0.269626
H 16.2079 41.5182 0.274474
H 15.6168 41.4253 44.0177
O 15.5945 1.42232 5.26972
H 15.0644 1.68607 4.48285
H 15.7065 2.27633 5.68064
O 9.75184 4.40436 3.53562
H 9.45761 3.65742 4.0765
H 9.61569 4.15034 2.63523
O 13.1676 2.12974 1.32508
H 13.1517 2.71555 0.589361
H 12.5518 1.38053 1.12807
O 11.2474 0.352394 0.539431
H 11.4188 44.1473 44.8456
H 11.2371 43.7278 1.17849
O 13.4458 40.474 1.3728
H 13.9065 40.5227 2.1911
H 14.0959 40.804 0.734905
O 17.9981 0.383925 3.22705
H 18.4019 1.24187 2.992
H 17.2759 0.593213 3.83632
O 14.9266 43.6433 7.52278
H 14.8789 42.826 6.99981
H 15.3065 44.33 6.92234
O 12.2153 4.58587 4.62608
H 12.0343 3.89852 5.27637
H 11.4011 4.79837 4.19545
O 12.1666 0.435151 7.83899
H 13.1198 44.3324 7.82188
H 11.9066 0.250342 8.75401
O 18.3335 3.15559 2.71242
H 18.1245 3.90723 3.30642
H 17.8721 3.34226 1.85405
O 16.0519 11.4247 4.60363
H 15.453 11.1168 5.23382
H 15.874 10.7634 3.88083
O 20.707 6.0547 3.14411
H 21.1879 5.61574 2.42168
H 19.8621 5.58924 3.20348
O 21.6108 6.86525 5.42249
H 21.4852 7.74517 5.17581
H 21.3902 6.40694 4.64435
O 20.7392 44.1396 9.02352
H 20.922 43.2547 8.72336
H 21.5397 44.3629 9.53995
O 18.8806 6.44941 6.87785
H 18.9413 5.68968 7.4433
H 19.7863 6.57477 6.54458
O 16.6573 13.9324 2.99409
H 16.4828 13.0797 3.43426
H 17.5235 14.2203 3.32429
O 22.9888 44.2579 10.3235
H 23.7799 0.165049 9.74097
H 23.2333 0.457443 11.2089
O 19.8866 4.36876 8.77482
H 20.0953 3.53625 8.3893
H 19.4345 4.11723 9.55582
O 17.9129 5.51987 4.51205
H 17.0352 5.84582 4.70042
H 18.3901 5.63826 5.34411
O 14.9643 9.20434 2.80964
H 14.6667 9.33416 1.91404
H 14.9201 8.24654 2.95587
O 14.5474 15.6553 4.25903
H 15.3019 15.2572 3.7421
H 14.139 16.3373 3.72271
O 26.6169 43.1537 7.80764
H 27.5542 43.1658 7.6865
H 26.4115 42.4926 7.12377
O 24.9646 0.941582 8.54123
H 25.1299 1.79289 8.06949
H 25.5337 0.282265 8.1744
O 23.3495 6.29491 7.5922
H 23.1167 5.45057 8.00839
H 22.6366 6.54904 6.95048
O 20.7646 2.21756 7.18946
H 20.7111 1.92931 6.22456
H 20.6178 1.41408 7.72926
O 27.647 41.3662 5.94681
H 27.5018 41.0967 5.06184
H 28.2793 40.7322 6.21873
O 22.3175 7.76835 41.8197
H 22.9796 7.45763 41.1135
H 21.9274 8.59717 41.4655
O 21.1013 9.81602 39.5077
H 20.1883 10.0497 39.4201
H 21.4237 10.6558 39.1846
O 33.4972 5.89448 3.15769
H 32.8692 5.73773 3.90412
H 33.1978 5.23599 2.53227
O 29.9287 4.23582 7.14696
H 30.5178 3.72182 7.74931
H 29.0645 4.13082 7.50925
O 31.7597 5.28708 5.07866
H 31.1645 4.48385 4.90019
H 31.4892 5.63815 5.91493
O 26.0653 40.6674 0.429377
H 25.9805 39.6939 45.3168
H 26.4596 41.0447 -0.27625
O 31.0912 2.60001 9.39103
H 30.5594 2.00465 9.911
H 32.0075 2.35617 9.48602
O 25.5976 5.58502 6.27318
H 24.7265 5.77108 6.6851
H 25.5419 5.9012 5.35176
O 22.1647 5.26012 0.707673
H 22.0965 4.88586 -0.155426
H 22.9236 5.8824 0.543749
O 23.3386 7.32172 44.4462
H 23.2791 8.17894 44.7763
H 22.9758 7.39797 43.5612
O 27.4219 40.5678 3.16388
H 27.0854 39.7136 2.84788
H 27.3455 41.1207 2.3857
O 26.794 44.0778 1.71153
H 26.4223 0.775037 1.48396
H 26.0142 -0.564476 2.01145
O 24.9072 18.8475 45.0709
H 24.5392 19.5373 44.554
H 25.6042 18.5843 44.4962
O 35.3524 7.63156 2.10467
H 34.8077 7.04197 2.59547
H 36.2257 7.71661 2.42594
O 27.1804 3.80385 7.6132
H 26.8058 4.5644 7.12484
H 26.8941 3.93118 8.53589
