192
Atoms. Timestep: 7050
O 2.26955 3.36663 6.48142
H 2.51878 3.56284 7.40151
H 2.56516 4.19896 6.04234
O 4.64393 0.748557 43.7912
H 4.45254 1.59802 43.4682
H 5.15154 0.396364 43.0952
O 5.60158 1.06701 1.12338
H 4.91613 0.538424 1.55712
H 5.49393 0.976161 0.190695
O 5.43069 4.63029 1.1173
H 6.33948 4.85658 1.27271
H 5.35948 3.71836 1.34338
O 3.29565 5.96435 5.46782
H 3.29104 6.05495 4.48793
H 2.87548 6.73971 5.77102
O 3.64326 6.15435 44.302
H 4.4068 5.83598 44.8238
H 3.92716 7.01762 43.8617
O 3.62543 3.49279 43.016
H 3.68432 4.32999 43.447
H 2.82365 3.55937 42.4303
O 3.33746 6.47531 2.86094
H 3.94298 5.89899 2.36834
H 2.66869 6.6365 2.11382
O 7.03645 10.1437 43.3621
H 7.80933 9.70871 43.0999
H 7.40094 10.9345 43.7723
O 3.58269 8.94964 43.5755
H 4.32276 9.49608 43.4365
H 2.86823 9.52977 43.8059
O 8.15766 39.8405 25.7607
H 8.60963 40.683 25.9799
H 8.89858 39.3276 25.5212
O 3.56422 1.11162 5.2602
H 4.50859 1.17499 5.46296
H 3.10386 1.77209 5.74451
O 3.3818 0.168193 2.69304
H 2.5264 0.308624 2.23514
H 3.34519 0.532209 3.59201
O 18.3704 42.5167 4.46037
H 18.7907 42.211 5.29269
H 18.0894 43.3843 4.75939
O 8.12837 5.56328 2.15652
H 8.20661 6.47601 2.425
H 8.1656 5.14497 2.99238
O 1.07282 9.67229 6.77688
H 1.59434 10.5137 6.67981
H 48.196 9.47149 7.67207
O 11.8511 42.228 1.46305
H 12.6434 41.79 1.58698
H 11.1205 41.6369 1.53281
O 10.595 0.949541 42.9115
H 10.1942 1.80352 42.7758
H 10.1688 0.519411 42.1849
O 15.1494 5.89686 3.72206
H 14.5704 6.50104 4.09678
H 14.6595 5.10644 3.44831
O 13.5685 3.38844 3.43166
H 12.7326 3.83417 3.63724
H 13.4314 2.97296 2.56908
O 8.07919 2.23937 6.71366
H 8.27756 2.40116 7.60484
H 8.37303 1.2893 6.56776
O 8.70265 1.96845 2.13982
H 9.26475 1.93846 1.39309
H 7.87974 1.50992 1.94162
O 16.838 40.9562 2.7901
H 17.321 41.4607 3.41987
H 17.5798 40.555 2.30422
O 14.4088 1.44118 5.50099
H 14.0216 2.05163 4.89235
H 14.2215 1.83279 6.35215
O 9.05001 3.63945 4.4438
H 8.74264 3.10404 5.19553
H 9.04625 3.0248 3.69723
O 13.3713 2.48502 0.797634
H 14.082 2.28097 0.242813
H 12.7051 1.81802 0.555696
O 11.3971 0.785917 0.309801
H 11.1905 0.626762 44.5559
H 11.7713 44.0857 0.555584
O 14.3597 40.6841 1.56341
H 14.116 39.7329 1.65531
H 15.1899 40.7689 2.14015
O 17.5942 1.01652 6.0325
H 17.9132 1.77677 5.56189
H 16.6689 1.13166 6.18879
O 11.3101 0.71013 4.4417
H 11.1989 0.313108 3.55693
H 12.2356 0.650179 4.59525
O 11.4869 4.73204 4.58983
H 11.5674 4.92602 5.54734
H 10.6068 4.32876 4.4912
O 9.1638 44.081 6.28336
H 9.808 44.1375 5.56283
H 8.75824 43.2019 6.26911
O 18.4924 3.03825 4.18083
H 18.3226 3.99126 4.16227
H 19.26 2.90262 3.5489
O 18.5499 10.8004 1.17607
H 19.2986 10.6472 0.54865
H 18.0962 9.96502 1.22161
O 22.8639 6.2701 3.39422
H 23.243 6.5159 2.5249
H 22.9478 5.31484 3.31716
O 22.748 7.41856 5.76562
H 22.4563 8.31056 5.75391
H 22.7691 6.95044 4.92119
O 21.7851 -0.02068 9.16139
H 22.0544 43.755 8.3024
H 22.6438 0.146765 9.66227
O 19.9182 6.01493 6.27363
H 20.0469 5.20775 6.78806
H 20.8058 6.41662 6.16246
O 16.3515 12.932 2.09234
H 16.0246 12.1085 2.38625
H 17.0449 12.6816 1.49601
O 23.9575 44.0556 10.4927
H 24.7051 0.0231126 9.89852
H 24.0644 44.5245 11.3025
O 19.6381 3.93518 8.03305
H 19.404 3.07757 8.31248
H 19.8698 4.40939 8.84993
O 18.1687 5.65691 4.16178
H 17.2818 5.91134 4.4291
H 18.7569 5.87206 4.8642
O 17.4333 8.29937 2.25687
H 18.0929 7.66542 2.5884
H 16.6275 7.7766 2.36102
O 15.3877 15.3208 3.51575
H 15.8166 14.5284 3.14467
H 15.8244 16.1513 3.35581
O 27.1213 41.8802 7.55751
H 27.7604 41.6951 6.81763
H 26.4602 41.2369 7.37476
O 26.2358 -0.0788415 9.07682
H 26.9246 0.615475 9.06568
H 26.567 43.3589 8.41809
O 25.1517 7.2616 6.89376
H 25.8427 7.80992 6.46717
H 24.3697 7.28171 6.32199
O 19.2562 1.20821 8.70745
H 18.9446 0.917072 7.84198
H 19.9978 0.646184 8.92376
O 28.4513 40.5324 5.5867
H 27.9429 40.593 4.8351
H 29.3495 40.6876 5.29884
O 22.2085 7.2561 41.8446
H 21.9951 7.0458 40.9953
H 22.3594 8.21743 41.7209
O 23.0316 10.4544 41.7384
H 22.8408 11.0344 41.0514
H 23.9165 10.5176 41.8959
O 32.0241 6.53292 4.05214
H 31.1961 6.3059 4.56398
H 32.7808 5.95836 4.17896
O 30.1171 3.54322 7.06963
H 30.8761 3.41276 7.6451
H 29.3403 3.453 7.66857
O 29.7957 5.65761 5.44423
H 29.9919 4.89226 6.04476
H 29.4321 6.3964 5.96556
O 26.0087 42.4725 1.04884
H 25.0898 42.5573 1.0724
H 26.2388 43.1325 0.396726
O 32.3599 2.74882 8.55307
H 33.2733 3.06704 8.70099
H 32.5748 1.84808 8.33459
O 25.2119 5.11557 8.60716
H 25.3026 5.9616 8.13625
H 24.5025 4.66156 8.18175
O 22.969 5.7456 0.924474
H 22.0804 5.51536 0.755959
H 23.4128 5.64138 45.2351
O 23.8528 5.65106 43.4957
H 24.1359 4.91077 42.9348
H 23.2661 6.26537 43.0116
O 27.6961 40.5727 2.68981
H 27.1954 41.2631 2.21433
H 28.3991 40.2446 2.05486
O 23.763 43.7703 44.568
H 22.8932 43.9321 44.7326
H 23.7637 43.3192 43.7265
O 27.4864 22.0187 40.3277
H 26.8476 22.2407 40.9566
H 27.5556 22.8142 39.8825
O 31.8605 8.9286 2.67114
H 31.5828 8.04239 2.88261
H 31.0242 9.32977 2.31879
O 27.5638 3.4902 8.80783
H 26.7664 3.99636 8.4592
H 27.7573 4.02946 9.54095
