192
Atoms. Timestep: 5000
O 46.8606 0.598205 3.28979
H 45.9707 0.736441 3.18499
H 0.12503 1.54556 3.53604
O 4.28747 2.75076 44.148
H 4.79438 3.35585 43.561
H 3.43431 2.89224 43.741
O 5.35657 2.46708 1.58812
H 5.21494 1.54351 1.90272
H 4.8972 2.50699 0.751059
O 4.45576 5.21819 2.83123
H 4.71245 5.05005 3.76143
H 4.55987 4.43025 2.35863
O 0.104909 3.40954 4.18415
H 0.562434 4.24411 3.93586
H 46.7405 3.50046 5.14918
O 4.63649 7.75564 0.541478
H 4.90093 6.93622 0.882287
H 5.40192 8.2969 0.294065
O 5.21463 4.65641 42.1184
H 6.00952 5.28141 42.0498
H 5.28736 4.26993 41.2567
O 1.75289 6.04228 3.87736
H 2.57597 5.86902 3.39695
H 1.55585 6.87904 4.2123
O 2.16535 9.3062 45.1372
H 2.72209 8.56963 0.219113
H 1.88603 9.16411 44.2572
O 6.99197 9.01835 44.8342
H 7.14558 9.10206 43.9226
H 7.58967 9.65947 -0.00263396
O 20.4427 29.921 31.5729
H 19.8514 29.1936 31.5331
H 19.8659 30.5573 32.0236
O 2.21112 43.362 4.34597
H 2.17899 43.3235 5.31345
H 1.3254 43.6445 4.07835
O 4.38311 43.9807 2.6451
H 4.85297 43.0997 2.54888
H 3.69755 43.8597 3.30676
O 15.7101 42.8349 7.33841
H 16.0583 42.1414 7.93814
H 16.3121 43.6157 7.39023
O 5.51088 5.11541 5.72918
H 5.27992 4.50616 6.47225
H 6.43918 4.91831 5.53705
O 44.3198 21.0296 38.0046
H 44.1127 21.9723 37.8551
H 44.6417 21.0632 38.8906
O 12.9219 0.743221 1.23196
H 12.6675 0.0185204 1.81433
H 13.7188 0.538071 0.787248
O 11.0637 4.85226 43.499
H 11.0252 5.74771 43.9008
H 10.7151 5.08358 42.6295
O 15.5557 6.2625 4.71847
H 15.2847 7.17322 4.65263
H 14.7071 5.80574 4.92773
O 13.5252 4.61257 4.92011
H 12.6064 4.85061 5.06576
H 13.5788 4.24466 3.99297
O 9.1127 1.03803 6.49945
H 8.44741 1.26466 7.14742
H 9.74725 0.54701 7.03495
O 8.26507 2.8751 2.09171
H 8.92506 2.652 1.4434
H 7.36598 2.58537 1.85023
O 13.5406 41.9645 5.43183
H 14.1761 42.193 6.08487
H 12.7346 41.6203 5.84495
O 14.701 2.83565 6.82554
H 14.4154 3.37687 6.02089
H 14.8412 3.51882 7.51408
O 8.96779 3.08159 4.759
H 8.87976 2.32762 5.34775
H 8.58696 2.86617 3.88105
O 12.8226 3.33763 2.73897
H 12.8864 2.50782 2.26628
H 12.1707 3.82315 2.14944
O 10.5872 2.0733 0.358739
H 10.5843 2.5342 44.7103
H 11.3743 1.54175 0.439019
O 13.519 42.6234 2.41593
H 13.3893 41.7165 2.1133
H 13.7522 42.4494 3.37376
O 17.0774 0.93932 7.47359
H 17.6585 0.992483 6.72985
H 16.3206 1.43624 7.14262
O 13.642 0.677006 8.1081
H 14.3876 0.0562543 7.8795
H 13.7483 1.48739 7.66278
O 10.9743 5.27249 4.35008
H 10.5715 6.09829 4.59794
H 10.347 4.58732 4.58436
O 10.7351 0.216428 8.44899
H 11.6512 0.429661 8.36839
H 10.7532 43.42 8.62175
O 18.4069 1.16068 4.94393
H 18.9232 1.97231 5.0466
H 17.6797 1.44864 4.41539
O 16.7588 7.70919 44.6882
H 15.9107 8.05428 45.0804
H 17.0365 6.96433 45.2464
O 24.7615 4.74319 4.0562
H 24.286 5.40714 3.518
H 25.3115 5.24874 4.69693
O 22.8135 3.40445 5.22273
H 23.5231 3.82626 4.66618
H 23.1248 2.55443 5.41775
O 21.6786 0.0973486 10.1832
H 22.1911 0.463338 10.9063
H 22.3269 0.119229 9.44457
O 19.7842 3.7489 5.32022
H 19.7754 3.80762 6.3022
H 20.6955 3.71041 5.10517
O 18.2432 9.82621 43.8505
H 17.8029 9.97818 43.0269
H 17.8627 9.07287 44.2914
O 23.1655 0.169808 7.69024
H 24.0752 0.474934 7.72137
H 23.401 43.4692 7.24423
O 19.9657 3.94136 8.24526
H 19.7152 3.00425 8.43888
H 19.3724 4.5006 8.74068
O 17.6222 5.03979 3.34596
H 16.9263 5.55867 3.81329
H 18.1455 4.62053 4.01383
O 17.8636 5.42021 0.528094
H 17.8651 5.15965 1.47822
H 18.8387 5.57243 0.385834
O 19.4839 11.7616 0.120048
H 19.25 12.6718 0.18227
H 18.7463 11.3738 44.862
O 27.4058 42.6711 6.59894
H 27.835 43.0685 5.80428
H 27.9988 42.0131 6.91652
O 25.9125 0.481404 7.46663
H 26.2442 1.31957 7.75188
H 26.5798 43.9634 7.0946
O 22.8304 5.10631 7.75162
H 21.9778 4.9788 8.19825
H 22.6922 4.81229 6.84603
O 19.3392 1.47224 9.04143
H 18.5417 0.999228 9.13643
H 20.0954 0.939744 9.47444
O 28.1791 44.0393 4.35995
H 27.4887 0.089772 3.76667
H 28.3196 0.699711 4.94841
O 24.6461 8.75994 43.5305
H 23.7165 8.68791 43.1647
H 25.1302 9.22731 42.8667
O 25.8636 10.4346 41.6541
H 25.8718 10.6717 40.7572
H 26.5875 10.9438 41.9191
O 28.6965 7.2871 6.14422
H 28.6949 7.25527 7.10429
H 29.268 6.60065 5.80758
O 29.0574 2.49245 6.40338
H 29.8273 2.21031 6.88187
H 28.4483 2.60683 7.18546
O 30.0804 4.9777 5.3425
H 29.579 4.13318 5.68091
H 30.2867 4.95409 4.45882
O 24.7211 41.8975 0.772243
H 24.3452 42.2744 -0.0116224
H 24.8444 40.9476 0.377363
O 31.2339 1.84472 8.22532
H 32.0698 2.08941 7.86165
H 31.4489 1.09461 8.80698
O 25.3937 4.72246 8.77513
H 24.5433 4.57339 8.34904
H 25.3486 5.56466 9.2774
O 23.8557 6.62538 2.32058
H 23.677 7.54188 2.51692
H 24.499 6.77447 1.5816
O 25.6771 6.87054 0.179298
H 26.5269 6.96394 0.505607
H 25.5627 7.50664 44.5811
O 26.4013 43.8983 2.2956
H 25.6194 43.4079 2.09243
H 27.0547 43.324 1.95363
O 24.8422 39.5467 44.0367
H 25.3868 38.7873 43.726
H 24.1905 39.0616 44.4723
O 32.0834 27.8631 31.8036
H 31.3067 28.3317 32.0506
H 32.6706 28.5372 31.6056
O 28.0179 9.73387 4.76551
H 28.5219 9.11134 5.26417
H 27.2605 9.26462 4.5502
O 27.3181 2.89455 8.42721
H 26.6587 3.53839 8.65026
H 27.6425 2.5871 9.3213
