192
Atoms. Timestep: 1100
O 0.900395 43.6781 0.867366
H 0.194846 42.9723 0.796205
H 0.885234 43.8455 1.80423
O 5.54361 4.0929 0.0893371
H 4.74206 4.30227 44.8775
H 5.47837 3.11828 0.133764
O 6.34602 5.32441 2.68211
H 7.22082 4.77483 2.83009
H 6.0277 5.10748 1.78649
O 4.39121 4.75568 4.77079
H 4.98091 4.83309 5.48692
H 4.98521 4.80436 4.00639
O 1.81627 0.686287 3.42968
H 2.23867 1.51708 3.53708
H 2.16991 0.2672 4.25546
O 1.62068 6.59996 6.72843
H 2.48243 6.27752 6.45035
H 1.0803 6.18532 6.07013
O 4.90787 1.24712 45.1159
H 4.00566 1.31908 44.7668
H 5.46906 0.920835 44.3426
O 3.82703 1.98265 5.14448
H 4.01614 2.96063 5.1988
H 4.0887 1.71034 5.99465
O 0.536151 9.21275 6.79975
H 1.01631 8.36381 6.75269
H 0.22254 9.37181 7.70211
O 46.4785 6.05674 4.53539
H 45.5954 5.7364 4.69003
H 46.6672 5.81441 3.63068
O 43.7957 10.8217 42.7762
H 43.7009 9.9241 43.0829
H 43.0621 11.2223 43.2559
O 2.1532 1.27934 44.2167
H 1.61336 1.93132 43.7387
H 1.54615 0.844726 44.8618
O 5.73736 1.01542 2.81791
H 5.18503 0.944755 2.06657
H 5.04694 1.28258 3.5219
O 10.6538 43.1007 12.5978
H 11.5498 43.17 12.903
H 10.7791 43.0893 11.6404
O 5.87413 4.71458 7.21533
H 6.80063 4.47227 7.34677
H 5.92583 5.54697 7.73702
O 45.4241 41.36 13.4691
H 44.5106 41.6675 13.6862
H 45.2658 41.0033 12.5114
O 8.54619 1.21804 3.51147
H 7.71821 1.05528 3.06129
H 9.14713 0.681177 2.9124
O 12.438 5.99877 44.3954
H 12.9383 5.43504 43.8137
H 13.1146 6.39643 44.9347
O 14.5599 8.07324 5.80854
H 14.7151 8.93773 6.19812
H 13.5644 8.02832 5.79016
O 11.659 7.84566 5.81137
H 11.1347 8.08347 6.64552
H 11.0646 7.21572 5.44346
O 9.28802 1.72861 6.22463
H 8.92726 1.46284 5.29394
H 9.00284 1.018 6.88131
O 9.53274 5.76331 5.47963
H 9.71857 5.04752 4.91587
H 8.91212 6.34429 5.03817
O 12.9484 43.7573 2.06111
H 13.4863 43.5346 1.30761
H 13.5439 -0.00544476 2.73575
O 12.118 0.924666 6.17992
H 11.1787 1.11905 6.01722
H 12.3681 1.70963 6.64609
O 8.62005 4.45595 7.80473
H 8.8822 3.54225 7.72975
H 9.00781 4.88679 7.04484
O 9.14376 3.89392 3.35606
H 8.884 3.03794 3.43787
H 9.61166 4.00838 2.53172
O 10.2423 5.0757 0.971573
H 9.44638 5.27487 0.517367
H 10.8765 5.37971 0.31785
O 10.3783 0.142913 1.92296
H 10.3971 0.49912 1.04474
H 11.3006 -0.113123 2.21329
O 14.3388 0.521233 4.1185
H 15.1333 1.04242 4.23472
H 13.7198 0.701458 4.76808
O 11.7408 42.7231 9.0401
H 12.1035 41.893 9.34192
H 12.3419 42.9348 8.33949
O 9.94624 7.49862 8.64961
H 10.3595 7.70525 9.48256
H 9.44961 6.68411 8.85965
O 9.0642 -0.00462151 8.56403
H 9.94494 43.7838 8.60309
H 8.51423 43.3151 8.59495
O 16.8151 1.87476 4.85401
H 17.0099 2.8016 4.8134
H 17.6408 1.451 5.09711
O 19.6896 3.46671 0.930366
H 20.5241 3.67069 1.35456
H 19.0566 4.14838 1.24645
O 22.374 4.82804 2.38601
H 23.2173 4.47234 2.49257
H 22.3561 5.77943 2.24915
O 21.3575 3.87738 4.89347
H 21.6738 4.13008 4.02855
H 21.6148 2.91569 5.03579
O 19.2745 0.207282 5.82469
H 20.1468 0.400799 5.39615
H 19.111 43.42 5.57201
O 18.5951 5.02607 5.96087
H 18.8158 4.97305 6.85545
H 19.3837 4.61731 5.54473
O 20.2017 1.98288 43.2828
H 20.7671 2.74678 43.1141
H 20.029 2.15836 44.2626
O 21.7775 1.19858 5.02987
H 22.2056 1.09632 5.98224
H 22.4816 1.05715 4.3387
O 19.1961 4.70964 8.78673
H 19.1237 3.7583 8.76678
H 18.4476 5.01285 9.31282
O 16.6737 6.74659 4.34952
H 15.9478 7.25142 4.76348
H 17.3097 6.48331 5.09655
O 17.7125 5.35426 1.85047
H 17.2928 5.79542 1.12922
H 17.4568 5.75135 2.65668
O 20.6587 43.5509 41.9796
H 20.5449 0.262976 42.4123
H 21.2847 43.6577 41.2813
O 23.6313 0.917442 3.07584
H 24.5626 1.12266 3.16443
H 23.6304 0.376908 2.28688
O 22.8064 1.03624 7.87994
H 23.7182 1.59234 7.99984
H 23.0472 0.171702 8.11437
O 22.4245 5.5965 6.91896
H 21.598 5.42825 7.38103
H 22.2321 5.11648 6.12096
O 19.3325 2.04652 8.44637
H 20.1907 1.67482 8.68183
H 19.0883 1.59443 7.63662
O 26.1991 1.71013 3.55035
H 26.8651 1.20876 3.10529
H 26.5541 1.51859 4.45076
O 29.0296 6.12524 44.659
H 29.0078 6.81429 44.0247
H 29.7995 5.61427 44.4877
O 30.0943 7.44692 2.52722
H 29.5834 7.09453 1.79443
H 30.231 8.37877 2.19643
O 29.8754 6.97003 7.36248
H 29.7302 7.88811 7.22296
H 29.0061 6.56431 7.22368
O 26.9198 1.58255 6.10139
H 27.8613 1.5465 6.38495
H 26.4153 1.75837 6.96408
O 27.1706 5.99533 6.23885
H 26.8789 5.22469 5.79309
H 27.1181 6.80895 5.61332
O 30.0302 42.4954 45.1913
H 30.9598 42.3017 -0.00973025
H 29.6165 41.6916 44.816
O 29.6747 1.61469 6.88072
H 30.2964 2.34014 6.84472
H 30.1548 0.895932 7.28082
O 25.0054 4.79773 8.40986
H 24.2084 5.17379 8.02467
H 25.738 5.17844 7.93772
O 25.3316 4.20864 2.6414
H 25.7334 3.33172 2.84582
H 25.9087 4.69593 1.9358
O 26.4513 5.95191 0.638224
H 25.8255 5.92815 45.1194
H 27.3242 5.77901 0.224983
O 28.0727 0.719111 1.10539
H 28.9342 0.868333 0.670516
H 27.9627 43.9175 0.97422
O 32.7734 41.4489 44.3033
H 33.489 41.8309 43.7559
H 32.7027 40.5825 43.9805
O 32.5427 41.2029 13.0978
H 32.1369 41.7329 13.8457
H 33.4936 41.2483 13.3349
O 31.5989 6.91868 9.41282
H 30.9202 6.87423 8.74486
H 31.4488 7.81856 9.83775
O 25.2071 2.15846 8.37741
H 25.074 3.23784 8.37976
H 25.4658 1.87863 9.21547
