192
Atoms. Timestep: 4050
O 46.4544 43.8932 2.25321
H 46.0709 43.7463 3.12175
H 46.2193 0.731004 2.12236
O 5.15146 3.64282 44.0133
H 4.69712 4.42696 43.6048
H 5.61834 3.2423 43.3057
O 5.39406 3.30983 1.78255
H 5.01057 2.41323 1.86164
H 5.49225 3.60774 0.877094
O 3.78806 4.89689 3.58306
H 4.46837 5.33572 4.08664
H 4.34192 4.43321 2.93037
O 46.0365 2.40407 2.02324
H -0.222728 2.92948 2.5374
H 45.2702 2.92222 2.06368
O 2.88968 7.41197 2.61272
H 3.15605 6.49747 2.55187
H 3.56493 7.70747 3.29066
O 5.55338 3.43414 40.9813
H 4.81037 3.10059 40.3973
H 6.29888 3.10121 40.4704
O 1.026 3.98017 3.62401
H 1.90435 4.2375 3.33429
H 0.941462 3.76275 4.55134
O 1.91271 9.1014 0.597569
H 2.24653 8.53516 1.31821
H 2.30624 8.83524 -0.207666
O 5.90842 8.29375 3.89075
H 5.75632 7.99035 4.81873
H 6.48926 7.60153 3.54658
O 26.0808 25.2917 34.3357
H 26.9895 24.9274 34.2567
H 25.6225 24.5339 34.6177
O 2.26027 43.4498 1.92325
H 1.93254 42.7444 1.35781
H 1.41799 43.792 2.12238
O 4.76857 0.541135 2.06005
H 4.814 43.9857 1.44556
H 3.86308 0.445619 2.23395
O 14.3582 43.2319 8.10334
H 14.8591 42.9727 8.8612
H 14.9206 43.4995 7.29494
O 5.80985 5.86984 5.40539
H 5.35898 5.67251 6.24925
H 6.72076 5.47802 5.53086
O 42.5824 26.5207 31.467
H 42.4474 27.4125 31.6537
H 41.7131 26.278 31.1774
O 13.6558 0.443688 2.11023
H 13.3859 43.9572 2.79266
H 13.2866 0.135192 1.30407
O 10.8758 5.40621 44.1024
H 11.5789 5.94623 43.7509
H 10.1519 5.70612 43.5857
O 15.9204 6.08431 6.09306
H 15.9307 7.06759 6.11471
H 15.1437 5.81092 5.63021
O 13.4042 4.51639 5.06677
H 12.4763 4.3958 5.33077
H 13.4504 4.15742 4.14994
O 7.89509 2.31159 8.46458
H 7.99267 1.34631 8.50632
H 8.591 2.59886 9.0325
O 7.99185 3.33645 3.29701
H 8.70603 3.63331 2.77927
H 7.18489 3.23128 2.7375
O 13.5966 40.9817 5.4023
H 13.5306 41.5411 6.16896
H 14.4914 41.0039 5.16199
O 14.7681 2.95855 6.93832
H 14.2707 3.53431 6.29916
H 15.5938 3.43895 7.09793
O 7.94181 4.27094 6.06268
H 7.82862 3.62733 6.78507
H 7.80498 3.64635 5.31384
O 13.1029 3.20969 2.81057
H 13.3391 2.27005 2.58577
H 12.2654 3.44904 2.38423
O 10.293 4.61297 1.84318
H 10.691 5.534 1.82202
H 10.3567 4.54307 0.890659
O 12.099 42.4433 3.35109
H 11.189 42.2913 3.49301
H 12.5181 41.9799 3.99524
O 15.1544 0.0174525 5.86673
H 16.0065 0.0696361 5.41707
H 14.9045 0.966988 6.04464
O 13.1658 1.56185 8.71844
H 13.386 0.628668 8.61212
H 13.8527 2.09126 8.39401
O 10.9049 4.70145 6.37505
H 11.0631 5.17459 7.18376
H 9.9583 4.69161 6.24863
O 10.2473 1.90327 9.89732
H 11.1765 1.74678 9.6791
H 10.2042 2.09569 10.8268
O 17.7566 0.65823 4.87856
H 18.2044 1.46156 5.2272
H 18.1595 0.505839 3.99705
O 18.1065 6.27074 43.8469
H 17.334 5.98522 43.4052
H 18.0211 5.94075 44.7665
O 23.4971 3.3162 3.08499
H 24.0995 4.06653 2.88126
H 23.1458 3.29768 2.22282
O 22.136 2.62044 5.27956
H 22.5381 2.91444 4.44063
H 22.5796 1.76504 5.50473
O 20.5749 0.0155721 8.33218
H 20.7045 43.1898 8.36105
H 21.3012 0.390183 7.84453
O 19.3713 2.95445 5.70149
H 19.3044 3.05732 6.69321
H 20.2706 2.70501 5.47172
O 19.4512 8.12531 41.9833
H 20.0741 7.58364 41.495
H 18.9208 7.61587 42.5825
O 23.0054 0.259519 6.70615
H 23.9269 0.356185 7.0935
H 22.9649 43.5238 6.26215
O 19.4139 4.17367 8.51569
H 19.4075 3.52832 9.26222
H 19.0235 4.98146 8.81203
O 18.2587 5.34838 4.26764
H 17.5252 5.56775 4.80745
H 18.536 4.51933 4.62284
O 17.8294 5.22103 1.26139
H 18.142 5.53243 2.12524
H 17.0039 4.77037 1.41006
O 20.6781 10.6165 42.9226
H 20.6542 9.70579 42.602
H 21.5833 10.653 43.2479
O 26.0302 42.9545 5.01589
H 26.6609 43.4995 4.53028
H 26.5411 42.1181 5.11284
O 25.6552 0.0982762 7.6064
H 26.1099 0.97758 7.86187
H 26.0558 43.9315 6.80292
O 22.839 4.6352 7.49684
H 21.9288 4.66467 7.86561
H 22.6903 4.02566 6.78904
O 19.7165 1.9573 10.3916
H 19.0236 1.61389 10.8659
H 20.0635 1.1699 9.9274
O 28.0623 0.4567 4.35274
H 28.6278 0.419658 3.5765
H 28.1993 1.32794 4.83302
O 26.3531 9.12611 43.8506
H 27.2769 9.00726 44.1685
H 26.4582 9.66172 43.0246
O 27.2848 10.2581 41.1514
H 26.8106 10.0017 40.3509
H 27.6015 11.1808 41.0678
O 29.4557 7.99425 6.55671
H 30.3121 7.60968 6.23754
H 28.8798 7.29855 6.16082
O 28.6707 2.63788 6.0904
H 29.4371 2.42669 6.60136
H 27.9486 2.65185 6.72296
O 29.0301 5.37921 5.10949
H 28.9565 4.57537 5.63525
H 29.1951 5.09402 4.26728
O 26.2455 42.2185 45.1945
H 25.8749 41.5035 0.481526
H 26.9182 41.795 44.6649
O 31.1074 1.47406 7.24909
H 31.9713 1.7881 7.01553
H 31.2982 0.546568 7.43091
O 25.2791 4.76423 9.05138
H 24.4507 4.56362 8.50743
H 25.3123 5.71524 9.11043
O 24.9765 5.46309 2.08511
H 25.8311 5.4814 2.54994
H 24.8184 6.3551 1.72283
O 25.1764 8.21977 1.21129
H 24.5779 8.93166 1.5154
H 25.4219 8.58907 0.352728
O 28.2668 43.8298 1.43078
H 27.7789 43.1195 1.01532
H 28.7361 44.3749 0.719021
O 25.4049 38.9617 44.9522
H 24.6048 38.3998 44.6631
H 26.0958 38.3208 -0.202676
O 34.1903 30.7178 27.7754
H 35.0204 30.832 27.3024
H 34.424 30.0224 28.4141
O 28.0767 10.4729 7.52542
H 28.5603 9.65765 7.19477
H 28.5018 11.1593 7.02197
O 27.1154 2.59184 8.52737
H 26.5968 3.38802 8.74139
H 27.5039 2.34996 9.37689
