192
Atoms. Timestep: 7500
O 2.89422 3.27736 6.30696
H 3.12601 3.71182 7.08015
H 2.91554 4.0467 5.68348
O 4.41233 1.83513 43.8815
H 4.08518 2.66572 43.4349
H 4.38868 1.13861 43.1937
O 6.11976 2.11924 0.978334
H 5.73475 1.67367 1.7983
H 5.67658 1.69756 0.230389
O 5.95648 4.87015 0.47222
H 6.82885 4.8353 0.851581
H 5.68981 3.94645 0.555787
O 3.24717 5.79815 5.14735
H 3.73384 5.66016 4.34511
H 2.44448 6.23144 4.75502
O 3.80625 5.82649 43.9171
H 4.67697 5.77701 44.2956
H 3.73149 6.72227 43.476
O 3.12279 3.83129 42.4796
H 3.453 4.60073 42.9444
H 2.25848 4.0533 42.1211
O 4.50729 6.02283 2.60748
H 5.22198 6.65506 2.7256
H 4.97309 5.45645 1.96107
O 6.82958 8.80461 43.3235
H 7.72883 9.1939 43.3451
H 6.83362 8.33746 44.1681
O 3.90101 8.29478 42.2786
H 4.81289 8.56683 42.291
H 3.41246 9.07716 42.4318
O 5.60507 42.0064 24.4721
H 4.68282 41.8436 24.7553
H 5.54243 42.8948 24.243
O 4.13757 0.997163 5.87981
H 3.58882 0.317412 6.25833
H 3.74837 1.90978 5.94463
O 5.10931 0.70355 3.34319
H 4.54578 0.0336431 3.04965
H 4.70778 0.766986 4.281
O 18.2779 42.5845 3.24533
H 18.8832 41.9717 3.69883
H 18.1801 43.3579 3.86566
O 7.4363 5.94759 2.83642
H 8.2792 6.35383 3.00048
H 7.45044 5.12382 3.35842
O 1.95007 7.58537 9.93187
H 2.85811 7.34781 9.74022
H 2.08267 8.49337 10.2857
O 11.5207 42.1716 2.34316
H 12.3778 41.7227 2.14579
H 10.8837 41.4434 2.43779
O 10.6514 0.514282 42.8767
H 9.865 0.596089 42.34
H 11.1788 -0.126775 42.3893
O 15.3995 6.40749 3.61788
H 14.9092 7.12182 4.08607
H 14.7622 5.75244 3.48729
O 13.9516 2.96222 3.70411
H 13.3589 3.56516 4.16353
H 13.7274 2.88272 2.7335
O 9.05761 2.74186 6.35544
H 8.18817 2.48499 6.71274
H 9.67897 2.00237 6.49165
O 8.59555 1.65836 1.97285
H 9.25505 1.26608 1.41154
H 7.70516 1.66113 1.63074
O 16.4678 41.6005 1.50274
H 17.1621 41.9908 2.07529
H 16.7833 41.8735 0.642388
O 14.7624 0.884374 5.22212
H 14.5018 1.5216 4.543
H 14.468 1.3549 5.99339
O 9.36889 3.6936 3.77754
H 9.07277 3.18573 4.5652
H 9.26436 3.09793 3.0054
O 13.1335 2.19584 1.17557
H 12.8888 2.88306 0.53177
H 12.3245 1.66498 1.09901
O 10.8874 0.676269 0.449921
H 10.6365 0.733358 44.6595
H 10.9058 43.8659 0.842407
O 13.8789 40.9165 1.81466
H 14.0659 40.0567 2.19397
H 14.767 41.2968 1.70193
O 17.7377 0.593932 4.66709
H 17.777 1.35621 4.06648
H 16.8322 0.483381 4.93862
O 12.2641 43.1091 5.13326
H 12.1057 42.6644 4.30365
H 13.1646 43.4118 5.12683
O 11.8358 4.60807 4.57827
H 11.645 4.66087 5.48566
H 11.0503 4.27235 4.20998
O 10.1786 44.5075 6.90204
H 10.6487 43.9961 6.23029
H 9.52489 43.8931 7.29265
O 18.2867 2.96049 3.38946
H 18.3277 3.88706 3.75001
H 18.6774 2.9411 2.53912
O 17.6306 11.3886 2.46904
H 18.1329 11.1131 3.23273
H 17.6108 10.5406 1.96324
O 22.0137 5.53538 3.77604
H 22.638 5.53021 3.05407
H 21.1729 5.22934 3.41723
O 21.4641 7.65744 5.48863
H 21.384 8.46628 5.04381
H 21.5712 6.99115 4.78309
O 21.3077 43.5392 9.12065
H 21.6 42.7452 8.62903
H 22.1409 43.8879 9.56306
O 19.1211 6.49838 6.82036
H 19.4534 5.74386 7.32603
H 19.9081 7.01865 6.5356
O 16.3581 13.8132 2.47875
H 16.8268 13.0566 2.79597
H 16.0143 13.3283 1.72049
O 23.7634 44.102 10.2036
H 24.5906 0.185874 9.7071
H 23.7662 0.657773 10.8796
O 20.2973 4.21866 8.65671
H 20.2402 3.28602 8.38014
H 20.3449 4.26041 9.6228
O 18.1178 5.72465 4.39669
H 17.2357 6.02689 4.25294
H 18.3148 6.00432 5.31104
O 18.0602 8.38993 2.47739
H 18.7384 7.7101 2.47939
H 17.2572 7.91651 2.61093
O 14.9051 15.7015 3.90834
H 15.4048 15.0101 3.40589
H 14.2499 15.3106 4.47405
O 26.1682 42.3031 7.69835
H 26.7863 41.8129 7.08292
H 25.5062 41.6898 8.11833
O 26.2764 0.421399 9.25333
H 26.4093 1.31747 8.95459
H 26.7305 43.8405 8.70759
O 24.0891 7.78355 6.96635
H 24.2477 8.67883 7.33784
H 23.2242 7.94091 6.56372
O 20.2218 1.58452 7.83864
H 19.5558 1.25809 7.21513
H 20.6284 0.800512 8.27194
O 28.1365 40.8147 6.2565
H 28.0484 40.6943 5.30403
H 28.8124 41.4812 6.29318
O 22.0213 7.25284 41.5585
H 21.8001 6.87528 40.6305
H 22.012 8.24773 41.5179
O 22.4161 10.4881 40.7009
H 23.1546 11.0887 40.8945
H 21.6923 11.1373 40.5382
O 32.7051 6.2247 3.45101
H 32.1825 5.88266 4.14881
H 33.5068 5.72176 3.52952
O 30.0631 3.6249 7.013
H 30.59 3.29215 7.72798
H 29.1634 3.45138 7.35146
O 30.5905 5.64097 5.21902
H 30.5463 4.94513 5.84479
H 30.4319 6.37965 5.83971
O 25.8528 41.6717 0.353468
H 25.7303 41.0294 44.7282
H 25.6336 42.5343 -0.0118882
O 31.6586 2.8061 9.02937
H 32.4134 2.2385 8.86023
H 31.5638 2.87503 9.97994
O 25.6225 5.22857 7.15249
H 25.7193 6.13745 7.49012
H 24.9191 5.3155 6.54083
O 22.7152 5.21276 1.07622
H 23.1348 4.67126 0.366263
H 22.7465 6.00993 0.644817
O 23.6233 6.16396 43.7878
H 24.5428 6.09919 43.4766
H 23.2456 6.58855 43.0334
O 27.8034 40.5378 3.11097
H 28.0267 41.3538 2.72649
H 27.0333 40.1606 2.61151
O 24.7338 0.224791 0.260766
H 23.9888 0.380518 44.753
H 24.2908 0.15623 1.09934
O 26.483 20.7617 42.1734
H 26.1159 20.4242 42.9638
H 26.049 21.5683 42.135
O 33.3554 8.75279 2.34845
H 32.7949 7.98934 2.6809
H 34.2739 8.52796 2.62999
O 27.0132 3.01043 8.39927
H 26.3982 3.57894 7.9744
H 27.3872 3.48216 9.18157
