192
Atoms. Timestep: 8750
O 3.87285 3.54061 6.23223
H 3.40611 3.50454 7.0428
H 4.03904 4.498 6.09961
O 5.66314 1.79532 43.8579
H 4.83449 2.23818 43.4851
H 5.90725 1.03558 43.3183
O 6.86103 2.45889 0.994907
H 6.33756 1.77528 1.51321
H 6.56467 2.35457 0.0389585
O 4.49474 4.55244 1.08848
H 5.34004 4.07885 1.02395
H 4.31742 4.86279 45.3873
O 4.27125 6.34911 5.80006
H 4.35639 6.38711 4.83018
H 5.0909 6.72194 5.99615
O 3.08056 5.33646 41.443
H 2.26494 5.81386 41.6804
H 3.77695 5.99382 41.2769
O 3.18879 2.79684 42.5643
H 3.44657 3.63113 42.2091
H 2.97869 2.29982 41.7669
O 4.64209 6.37243 3.1266
H 5.61378 6.58308 3.10158
H 4.45796 5.75808 2.48687
O 8.23741 7.92129 40.7423
H 8.33078 8.36808 39.9437
H 8.25918 8.61342 41.3891
O 5.7809 6.40918 40.3949
H 6.34152 7.12159 40.7183
H 6.32276 5.91397 39.7468
O 44.9048 4.07465 20.8317
H 44.0944 4.15895 21.2886
H -1.81476 5.00676 20.6748
O 4.33613 1.02722 4.87583
H 4.03075 1.85105 5.24686
H 3.7407 0.352847 5.29283
O 5.71794 0.398821 2.43486
H 6.28943 -0.274216 2.76509
H 5.40415 0.673357 3.29844
O 17.4542 42.6922 44.3498
H 17.3467 43.2292 43.5867
H 17.982 43.3078 -0.309353
O 7.22496 6.63946 4.01964
H 7.80063 7.08258 3.39931
H 7.69479 5.78729 4.06415
O 4.52912 2.79228 19.9677
H 5.23243 3.51306 20.0484
H 4.06747 3.08648 19.0866
O 11.3197 42.5002 1.74815
H 11.8042 41.7774 1.27758
H 10.8303 42.0478 2.43666
O 10.4862 43.6558 42.8931
H 10.2613 42.7313 43.0441
H 11.1559 43.6924 42.1935
O 14.5201 5.75411 3.76186
H 13.9136 5.47532 4.46654
H 14.3924 4.95468 3.17688
O 13.9663 3.0135 3.05336
H 13.1385 3.07654 3.50919
H 13.8979 2.47057 2.27406
O 12.3022 3.7741 8.33152
H 11.4266 3.93391 8.74679
H 12.5862 2.85111 8.50653
O 9.41537 3.50469 1.15001
H 9.96423 2.85044 0.748187
H 8.51734 3.15938 1.0173
O 15.6038 40.4405 44.896
H 15.839 41.3607 44.8057
H 16.4659 40.0302 44.7782
O 16.433 2.52819 4.94541
H 15.645 2.53621 4.37634
H 16.8481 3.35198 4.68821
O 9.29364 4.37268 3.83361
H 9.0749 3.48733 4.12521
H 9.44411 4.15938 2.88314
O 13.8051 1.86789 0.646518
H 14.171 2.31405 45.0712
H 12.8866 1.48771 0.342755
O 11.3636 0.642156 0.0795681
H 11.0684 0.385399 44.3772
H 11.3229 43.9876 0.652995
O 12.7924 40.3505 0.66478
H 12.4942 39.5275 1.00729
H 13.6617 40.2856 0.298252
O 19.6673 0.354562 0.310653
H 19.0925 0.91375 0.875427
H 20.3728 44.0867 0.850894
O 16.1896 1.62607 7.66123
H 15.933 0.851242 7.17442
H 16.0578 2.34761 7.01189
O 12.2501 4.25035 5.066
H 12.4794 3.86001 5.91416
H 11.3478 4.05088 4.94291
O 13.5876 1.40228 8.83809
H 14.5033 1.60711 8.54182
H 13.6166 0.820215 9.5738
O 17.7314 1.92408 1.91001
H 17.6984 2.85157 2.11035
H 17.5114 1.53136 2.77944
O 14.714 10.8812 4.1495
H 13.8611 10.502 4.31904
H 14.7144 10.9992 3.17777
O 19.3517 7.36129 2.92173
H 19.9424 6.90846 2.31327
H 18.5215 6.89682 2.99239
O 20.5302 8.06791 5.5859
H 20.4624 8.98056 5.66622
H 20.391 7.85875 4.62709
O 21.0046 0.313089 9.19464
H 21.0531 43.614 9.63723
H 21.8824 44.7718 9.35297
O 18.4533 5.79304 6.23016
H 19.0728 5.30893 6.7563
H 18.9342 6.62093 6.11092
O 15.3139 13.4995 5.39944
H 14.913 12.6822 5.04546
H 16.2374 13.2783 5.59698
O 23.7822 0.7904 9.67217
H 24.4286 0.581135 8.96347
H 24.137 1.55982 10.1123
O 20.5301 4.80797 7.94957
H 20.2889 3.86575 7.95558
H 20.3631 5.12497 8.83783
O 17.1978 5.12239 3.72506
H 16.4128 5.52667 3.99348
H 17.8073 5.23128 4.46991
O 12.4142 8.82925 4.54903
H 11.8249 8.52494 5.2311
H 12.6726 8.043 4.04692
O 15.0379 16.1098 3.79902
H 15.07 15.4716 4.47622
H 15.305 15.7295 2.97137
O 27.7964 42.8499 8.30254
H 28.6878 42.8751 7.85363
H 27.3963 42.1654 7.72431
O 26.2986 1.38607 8.25214
H 26.5131 2.26867 8.03969
H 27.1475 0.922598 8.30414
O 22.6492 5.88326 5.82703
H 22.0864 5.49377 6.54055
H 22.3131 6.80793 5.80801
O 19.3216 2.20518 8.2257
H 18.464 2.0482 7.92551
H 19.7357 1.36715 8.56597
O 28.2594 40.9178 5.99388
H 27.7401 40.9846 5.19713
H 29.1239 40.5716 5.6707
O 22.5955 8.4761 41.2652
H 22.9219 7.71312 40.7286
H 21.6825 8.65836 40.968
O 20.2287 8.81188 39.4201
H 20.017 9.36939 38.6675
H 19.4772 8.25664 39.3533
O 33.7749 4.83053 3.10999
H 33.2492 5.19729 3.85021
H 33.0851 4.51919 2.53295
O 30.6095 3.99855 6.8626
H 30.9708 3.25341 7.27795
H 29.6238 4.04063 6.97569
O 31.9127 5.81401 5.14777
H 31.4764 5.20741 5.7879
H 31.9912 6.65211 5.61501
O 26.2991 40.8769 0.909522
H 25.9399 40.6529 45.1848
H 26.7755 41.6099 0.792143
O 31.4576 2.03746 9.71929
H 31.8888 1.20871 9.92956
H 31.3239 2.5392 10.5252
O 25.4612 5.61228 6.86783
H 24.5464 5.60057 6.50035
H 25.7767 6.4962 6.62859
O 21.4988 6.54592 1.22956
H 21.3794 6.53525 0.291725
H 22.3768 7.00333 1.20801
O 22.8933 8.05272 44.3587
H 23.4379 8.87594 44.6211
H 22.8961 8.15605 43.3542
O 26.995 40.0328 3.49174
H 27.2071 39.9293 2.52826
H 26.1034 39.676 3.47458
O 28.128 43.5509 1.42577
H 27.8819 44.5279 1.47182
H 28.855 -0.664217 0.825064
O 23.5849 17.1748 2.31572
H 23.7609 16.2385 2.48857
H 22.862 17.3789 2.95427
O 36.4465 5.92181 2.82029
H 35.5373 5.90203 3.17417
H 36.57 5.19698 2.26466
O 27.3607 3.95882 8.22746
H 26.7489 4.5587 7.78163
H 27.0306 3.84325 9.14925
