192
Atoms. Timestep: 7400
O 2.80294 3.42379 6.25639
H 2.29058 3.66061 6.96844
H 2.99933 4.25189 5.77384
O 4.49574 1.72697 43.9957
H 4.20737 2.50943 43.4769
H 4.5917 0.99425 43.3667
O 5.8542 1.9373 1.15678
H 5.33179 1.5001 1.85867
H 5.41995 1.79196 0.280815
O 5.78908 4.75184 0.454534
H 6.51716 5.06191 1.01384
H 5.69799 3.76898 0.671078
O 3.34552 5.83203 5.13942
H 3.60799 6.01024 4.18505
H 3.0074 6.66674 5.55014
O 3.93925 6.16535 44.0131
H 4.74201 5.82855 44.4098
H 4.04921 6.89335 43.4383
O 3.23938 3.72852 42.6202
H 3.45238 4.62248 42.9219
H 2.64287 3.85099 41.8648
O 4.31019 6.03897 2.61664
H 5.18901 5.64816 2.68971
H 3.8549 5.56918 1.95964
O 6.74335 8.98974 43.4238
H 7.43764 9.14574 42.807
H 7.15903 8.6376 44.1591
O 3.84675 8.40805 42.5845
H 4.52948 9.09712 42.6339
H 3.01522 8.87558 42.6283
O 6.14728 41.5242 24.7433
H 5.30378 41.7885 25.1713
H 6.43766 42.3223 24.3837
O 4.10318 0.908582 5.80373
H 3.93642 0.38746 6.59619
H 3.67523 1.7591 6.02579
O 4.65013 0.592361 3.1078
H 3.84504 0.210486 2.91664
H 4.7513 0.824828 4.02231
O 18.4136 42.608 3.43133
H 18.9448 42.1155 4.09566
H 18.1588 43.4658 3.87271
O 7.43517 5.74524 2.67037
H 7.72084 6.65133 2.75791
H 8.12838 5.26534 3.14893
O 1.78821 8.06278 9.19854
H 1.96121 7.08178 9.28517
H 2.02483 8.38883 10.1692
O 11.6641 42.1514 2.46757
H 12.4903 41.7159 2.02879
H 10.9688 41.5286 2.68836
O 10.6152 0.706507 42.828
H 9.73814 1.04849 42.5983
H 10.8671 0.169496 42.0802
O 15.3672 6.22351 3.63006
H 14.5346 6.49767 4.10861
H 15.1731 5.34235 3.28985
O 13.9355 3.15522 3.71306
H 13.2948 3.7797 4.09925
H 13.6094 3.02955 2.84852
O 8.70051 2.98364 6.52139
H 7.871 3.23725 6.95273
H 8.81024 2.13235 6.91814
O 8.84626 1.6835 2.00461
H 9.25333 1.38303 1.19818
H 7.91073 1.4389 1.83484
O 16.5229 41.431 1.80364
H 16.9625 41.6187 2.64957
H 17.0704 41.9742 1.22703
O 14.7388 0.739437 5.19138
H 14.5084 1.6581 4.97631
H 14.6855 0.616591 6.13467
O 9.26008 3.56294 3.82921
H 8.84518 3.1174 4.56754
H 9.05845 3.03408 3.07092
O 13.2559 2.37712 0.950608
H 13.8227 2.72832 0.257061
H 12.4868 1.92408 0.619684
O 10.9604 0.53212 0.412736
H 10.8057 0.231463 44.7341
H 10.9418 43.8711 0.982185
O 13.9065 40.8927 1.72063
H 13.9441 39.9395 1.77585
H 14.7992 41.209 1.89471
O 17.7113 0.724035 5.16544
H 18.1176 1.4741 4.68926
H 16.7526 0.833935 5.0135
O 11.8058 43.6166 4.74239
H 11.7317 43.0679 3.90959
H 12.687 44.0367 4.73787
O 11.7811 4.82189 4.65536
H 11.5716 4.79435 5.58159
H 11.0447 4.26331 4.26293
O 10.0765 43.9607 6.76746
H 10.4764 44.1679 5.92015
H 9.96729 42.9921 6.70746
O 18.3014 3.01286 3.59599
H 18.2401 3.94722 3.84003
H 18.7676 3.05933 2.76997
O 18.0351 11.2476 2.07324
H 18.1079 10.3987 2.51923
H 17.8823 10.9775 1.14591
O 21.9857 5.61439 3.90882
H 22.2179 5.41834 2.98437
H 21.9877 4.73705 4.32065
O 21.5562 7.7261 5.63383
H 21.1579 8.49822 5.21378
H 21.6722 7.00787 4.91443
O 21.585 43.5503 9.05108
H 21.459 42.6076 9.22692
H 22.4248 43.7638 9.42232
O 19.1307 6.31997 6.61371
H 19.4008 5.69616 7.28846
H 19.9744 6.7952 6.44154
O 16.2508 13.6206 2.42507
H 16.7461 12.7836 2.42907
H 16.0331 13.8734 1.51137
O 23.9226 44.1005 10.3978
H 24.7431 0.301627 9.90664
H 23.6105 0.588057 11.0617
O 20.3515 4.26923 8.62324
H 20.0818 3.35394 8.55222
H 20.7683 4.29834 9.50226
O 18.0052 5.67407 4.13695
H 17.1837 6.16538 4.09994
H 18.5402 5.85071 4.97622
O 18.0732 8.32827 2.53552
H 18.5252 7.74779 3.17698
H 17.2961 7.7917 2.37392
O 14.8851 15.8067 3.85565
H 15.483 15.066 3.68961
H 14.7558 15.6716 4.78161
O 26.1294 42.1733 7.59398
H 26.8639 41.723 7.20939
H 25.6715 41.4151 7.9633
O 26.3463 0.440317 9.27427
H 26.581 1.24887 8.7365
H 26.4405 43.8219 8.72095
O 24.4997 7.94271 6.88416
H 24.4026 8.75496 7.44644
H 23.6547 7.80984 6.40492
O 19.8498 1.45956 7.95785
H 19.1731 0.92395 7.47928
H 20.5036 0.820807 8.28007
O 28.3715 40.6946 6.08156
H 27.985 40.7174 5.19805
H 29.2761 40.3753 6.02715
O 22.0602 7.35933 41.5863
H 21.9037 6.92284 40.7212
H 22.3062 8.24451 41.3065
O 22.5321 10.3373 40.9908
H 23.1162 10.9644 41.3082
H 22.2928 10.6427 40.135
O 32.5243 6.21661 3.6158
H 31.6477 6.15439 4.09015
H 33.2254 5.93884 4.20395
O 29.8851 3.59991 6.92073
H 30.5576 3.54746 7.57017
H 29.0195 3.36013 7.315
O 30.4264 5.71087 5.25596
H 30.2655 4.81299 5.68755
H 30.0089 6.42551 5.82996
O 26.0059 41.6216 0.478151
H 25.8471 41.542 44.6756
H 25.6672 42.4846 0.685161
O 31.8714 2.7439 9.05931
H 32.7828 2.77735 8.72702
H 32.0304 2.61032 9.99034
O 25.6607 5.03848 7.43489
H 25.7598 5.95713 7.09643
H 24.7245 4.98072 7.50339
O 22.9007 5.31442 0.978593
H 22.424 4.45052 0.852625
H 23.2554 5.54064 0.113414
O 23.6859 6.10568 43.5439
H 24.5738 6.14858 43.1479
H 23.0575 6.59442 43.0149
O 27.7559 40.6196 3.13231
H 28.2712 40.2901 2.45887
H 27.0585 41.0107 2.57823
O 24.3022 0.261847 0.048162
H 24.1762 0.55344 44.3178
H 24.4786 1.07257 0.455453
O 26.6447 20.9924 41.8191
H 26.0063 21.7072 41.991
H 27.4386 21.4958 41.6251
O 33.006 8.80037 2.45518
H 32.9064 7.92136 2.87809
H 33.8345 8.79826 1.92921
O 27.2096 3.07789 8.45199
H 26.6571 3.79675 8.09469
H 27.2819 3.31161 9.45208
