192
Atoms. Timestep: 7650
O 3.00098 3.4047 6.65093
H 2.77098 3.79554 7.46794
H 3.06025 4.12092 6.00598
O 4.36203 1.69844 43.6842
H 3.64286 2.18812 43.3437
H 4.35714 0.867951 43.1827
O 6.0396 2.19226 0.744252
H 5.49299 1.99668 1.46912
H 5.54768 1.87029 -0.0129627
O 6.13594 5.18924 0.630167
H 6.99027 5.14628 1.08472
H 5.83804 4.30748 0.360744
O 2.91179 5.46497 4.80623
H 3.45005 5.90947 4.11918
H 2.02092 5.91417 4.79236
O 3.64106 6.00418 43.7581
H 4.46214 5.92054 44.1858
H 3.80764 6.64792 43.0957
O 2.81666 3.51171 42.1154
H 3.08432 4.34231 42.5644
H 1.88835 3.4884 42.0745
O 4.82439 6.33107 3.01654
H 5.75208 6.32651 3.22403
H 4.94309 6.28894 2.04837
O 6.79311 8.5578 43.103
H 7.46062 9.20037 42.8144
H 7.17151 8.15715 43.8975
O 4.35129 8.02587 42.085
H 5.0803 8.41515 42.5774
H 3.6634 8.64302 41.9346
O 4.71796 42.783 24.0445
H 4.08334 42.0385 23.9903
H 4.15881 43.517 24.0814
O 4.22669 1.00403 5.84288
H 3.60315 0.331188 6.0786
H 3.87314 1.92637 6.09486
O 5.71478 0.659946 3.26409
H 6.53282 1.02965 3.53864
H 5.2751 0.714304 4.11094
O 18.2897 42.3419 2.85687
H 18.2947 41.6236 3.51207
H 18.1865 43.1054 3.42549
O 7.78394 6.18365 3.00068
H 8.30927 6.97052 3.10417
H 8.27738 5.457 3.44959
O 2.31896 6.99768 11.1385
H 2.88847 7.60369 10.68
H 1.66132 6.81851 10.4862
O 11.3216 42.4289 2.112
H 12.0832 41.8887 1.98891
H 10.7044 41.7258 1.88781
O 10.7323 0.0716011 42.804
H 10.0482 0.500862 42.3167
H 11.4586 0.294767 42.2101
O 15.3555 6.6326 3.66532
H 14.5558 7.01039 4.07369
H 15.0892 5.78788 3.24361
O 14.1507 2.95722 3.68245
H 13.4015 3.51673 4.04866
H 13.8842 2.75543 2.75688
O 9.35319 2.87264 6.03232
H 8.77177 3.12047 6.76915
H 9.82825 2.11464 6.29235
O 8.68651 1.85317 2.13497
H 9.48436 1.39724 1.76939
H 8.02236 1.91542 1.43104
O 16.3148 41.8228 0.78502
H 17.1116 42.0718 1.32649
H 16.6902 41.3109 0.0806359
O 14.9119 0.963301 5.3952
H 14.5815 1.54522 4.69486
H 15.2211 1.57293 6.06824
O 9.20388 4.00237 3.52241
H 9.18379 3.60739 4.42017
H 9.05295 3.31389 2.82124
O 12.9791 2.16318 1.27365
H 12.7717 2.90097 0.631243
H 12.2869 1.47125 1.00491
O 10.7759 0.414603 0.773501
H 10.8586 0.323782 45.0113
H 11.0151 43.6566 1.2056
O 13.8231 40.804 1.95789
H 13.7687 39.9262 1.60184
H 14.749 41.0365 1.75802
O 17.5179 0.567248 4.27211
H 17.7625 1.47133 3.988
H 16.66 0.633948 4.73383
O 12.697 42.6763 5.94512
H 12.6457 42.1442 5.14317
H 13.4439 43.2292 5.70952
O 11.8588 4.39783 4.4242
H 11.6126 4.07109 5.26131
H 11.1209 4.22854 3.88249
O 10.9149 44.3766 7.13648
H 11.5339 43.9819 6.52715
H 10.814 43.6853 7.80878
O 18.3536 3.18309 3.1105
H 18.2078 4.04361 3.62576
H 17.9313 3.28598 2.30146
O 17.2378 11.3154 3.25053
H 18.164 11.06 3.19339
H 16.7992 10.4849 3.00095
O 21.9093 5.59744 3.62421
H 21.8918 5.58638 2.6459
H 21.4576 4.83437 3.99751
O 21.5143 7.5514 5.28568
H 21.3972 8.29195 4.70198
H 21.6773 6.74925 4.65566
O 20.9584 43.5584 9.06965
H 20.7108 42.6076 9.09881
H 21.8159 43.6558 9.58436
O 19.2125 6.42408 7.1738
H 19.6022 5.66321 7.67709
H 19.9631 6.84344 6.76473
O 16.4515 14.0172 2.36019
H 16.7165 13.1025 2.43667
H 16.5933 14.1352 1.41271
O 23.4778 44.1851 10.1616
H 24.3035 0.519611 9.89855
H 23.8675 -0.633454 10.6995
O 20.025 4.33642 8.59138
H 20.1813 3.52367 8.13071
H 19.4553 4.22615 9.35706
O 18.3452 5.63162 4.66257
H 17.3907 5.86534 4.7763
H 18.7084 5.8769 5.53157
O 17.6901 8.59215 2.44651
H 18.3983 8.13881 1.96455
H 17.1933 7.86618 2.81143
O 14.7995 15.6193 4.13842
H 15.3962 15.1782 3.54085
H 13.91 15.4405 3.88827
O 26.1854 42.3224 7.81557
H 26.6507 42.4796 7.03267
H 26.4251 41.4057 8.10416
O 25.982 0.4967 9.262
H 26.1061 1.32414 8.83806
H 26.2119 43.839 8.73229
O 23.5646 7.41962 7.22833
H 24.0902 8.21829 7.32118
H 23.1 7.55496 6.37422
O 20.7014 1.82436 7.57
H 20.2654 1.49086 6.80418
H 20.7928 1.02677 8.14825
O 27.8456 41.013 5.9475
H 27.6905 40.8974 4.99478
H 28.7385 40.7284 6.05746
O 22.1531 7.47438 41.6136
H 21.9602 6.93086 40.8603
H 22.0734 8.31039 41.2962
O 22.1091 10.3215 40.4224
H 22.7306 10.6668 39.7762
H 21.8263 11.0328 40.9933
O 32.9386 6.13454 3.2142
H 32.4479 5.82062 3.99116
H 33.4154 5.36331 2.89942
O 29.959 3.68029 6.91562
H 30.3669 3.49456 7.77221
H 29.0309 3.84415 7.17153
O 31.0053 5.64823 5.19038
H 30.6905 5.01337 5.79155
H 30.3181 6.29552 5.25892
O 25.8437 41.6406 0.4207
H 25.7649 40.8515 44.9752
H 26.0977 42.3323 -0.161175
O 31.6346 2.71372 9.29298
H 31.8303 1.83152 9.57831
H 31.6381 3.11561 10.1727
O 25.5464 5.41635 6.75204
H 24.797 6.00177 6.91841
H 26.0662 5.77655 6.06567
O 22.5478 5.18913 1.01378
H 23.0439 4.30877 1.10404
H 22.9135 5.58926 0.158184
O 23.4448 6.32172 43.9459
H 24.0098 7.07274 44.2338
H 22.9521 6.69705 43.1771
O 27.682 40.6319 3.27288
H 27.1083 40.6563 2.49219
H 28.4963 40.1387 3.00091
O 25.2586 0.00338597 0.632045
H 24.6182 0.732783 45.5927
H 24.763 -0.68302 1.01884
O 26.0715 20.414 42.8682
H 26.8444 20.2286 42.3398
H 25.7479 19.547 43.007
O 33.9353 8.63868 2.18408
H 33.6312 7.96182 2.72226
H 34.2781 9.16561 2.88938
O 26.8517 3.35104 8.1596
H 26.2216 4.05186 7.79988
H 26.9336 3.48837 9.07192
