192
Atoms. Timestep: 1550
O 1.28587 43.6707 0.64123
H 1.17166 42.7811 0.745239
H 0.930856 44.0544 1.45046
O 4.7717 4.80635 0.289228
H 5.2264 5.13068 44.712
H 4.80893 3.84547 0.205096
O 5.62373 5.56646 3.10519
H 6.35228 4.94213 2.9385
H 5.29543 5.81763 2.19789
O 3.59144 4.59638 4.94111
H 3.99086 4.50211 5.7588
H 4.26478 4.85764 4.2776
O 0.565467 1.31237 2.87832
H 1.45952 1.6266 3.21085
H 0.0416902 1.25882 3.68946
O 1.67369 7.15276 5.02548
H 2.28868 6.43621 4.93175
H 0.876122 6.69864 5.22838
O 5.1362 2.09441 0.0763706
H 4.33831 1.70274 44.9005
H 5.82462 1.95671 44.5909
O 2.96644 1.93784 4.04034
H 3.09267 2.79939 4.3179
H 2.96313 1.30543 4.77355
O 1.68133 10.2444 5.45512
H 1.62216 9.31505 5.29738
H 2.36532 10.5851 4.9127
O 45.6968 6.13962 5.57841
H 45.3436 5.48487 6.18769
H 44.9473 6.60284 5.21845
O 40.9947 13.047 41.5617
H 41.765 13.3531 41.1555
H 40.9499 12.1575 41.1644
O 2.89695 1.02631 44.1629
H 2.44124 1.81045 43.8944
H 2.34996 0.593158 44.8343
O 6.19868 0.459107 2.59618
H 6.15276 0.995413 1.78503
H 5.39087 0.591433 3.077
O 13.2828 43.1689 11.8976
H 12.6559 42.8334 11.2751
H 12.7444 43.5457 12.5931
O 5.10444 3.54524 7.08839
H 6.07799 3.71263 7.18483
H 4.83513 2.90981 7.73433
O 43.9443 39.323 15.9893
H 44.3814 38.8014 15.3366
H 44.385 39.1072 16.7026
O 8.69215 1.48197 3.61106
H 7.85569 1.05297 3.31908
H 9.27724 0.77823 3.40987
O 11.4752 6.53418 44.0454
H 12.2129 7.09127 44.0288
H 11.1299 6.68113 43.1986
O 14.6631 8.17874 5.83113
H 14.9986 8.91028 6.35096
H 13.7607 8.03073 6.1144
O 11.5906 7.99801 6.46889
H 10.9613 7.6191 7.12241
H 10.9587 8.35805 5.83497
O 9.54036 1.86735 6.61256
H 9.47103 1.62638 5.68936
H 9.23912 1.08088 7.08998
O 8.57742 6.29085 4.3503
H 8.7528 5.84125 3.48665
H 7.75023 6.73464 4.16313
O 12.7661 43.4127 4.17142
H 13.3494 43.4875 3.42306
H 13.1799 43.929 4.90618
O 12.3301 1.59134 8.08864
H 11.5518 1.87812 7.62296
H 12.628 2.24348 8.72261
O 8.02588 4.46437 6.39864
H 8.43862 3.61312 6.28855
H 8.15151 5.01465 5.60838
O 8.36766 4.25908 2.63283
H 8.50966 3.38303 3.09025
H 8.86618 4.39597 1.82714
O 10.4176 4.23627 0.773517
H 10.417 3.51048 0.15615
H 10.7583 4.90295 0.178655
O 10.3762 43.5603 2.87243
H 10.0205 42.6928 2.97094
H 11.1896 43.4339 3.37534
O 14.041 0.386427 6.1336
H 14.94 0.778182 5.95999
H 13.5718 0.800394 6.8458
O 11.2572 42.7374 9.01302
H 11.7613 42.2152 8.36481
H 11.6663 43.6373 8.93895
O 9.42165 6.65371 7.77822
H 9.03312 6.51153 8.62636
H 9.05894 5.91792 7.28845
O 8.7847 43.4787 7.88238
H 9.38801 42.7804 8.12638
H 7.88524 43.1498 7.73527
O 16.4678 1.73737 6.31489
H 16.8149 2.64168 6.20167
H 17.2563 1.2213 6.26759
O 19.592 3.72658 0.704938
H 20.4403 3.95122 1.11495
H 18.9016 4.15254 1.24163
O 22.2986 4.66511 2.32957
H 23.2353 4.38641 2.40788
H 22.4608 5.56249 2.03043
O 21.0843 4.01912 4.87708
H 21.4825 4.36923 4.0237
H 21.5366 3.12989 4.87764
O 19.3661 0.514348 5.50774
H 20.031 1.11471 5.06241
H 19.3005 43.8471 4.94055
O 18.225 4.1793 5.81351
H 18.6532 4.17227 6.68929
H 18.9729 4.03793 5.16425
O 19.6783 3.02809 43.1029
H 18.8609 2.56463 43.0935
H 19.7495 3.31427 44.0236
O 22.2757 1.52295 4.88163
H 22.5944 1.18813 5.70223
H 22.9797 1.27842 4.28869
O 20.0094 4.0519 8.02366
H 20.2506 3.12511 7.957
H 19.8186 4.15216 8.94041
O 16.8041 6.58685 4.5544
H 16.0323 6.90043 4.96985
H 17.2679 6.02581 5.18329
O 17.423 4.50003 2.33129
H 17.0355 3.80301 2.86419
H 17.278 5.31769 2.81964
O 21.4695 1.33049 41.5836
H 20.8361 1.96436 41.9707
H 21.3442 0.446864 41.9156
O 24.2866 0.347699 3.05847
H 25.1907 0.730885 2.99198
H 24.3426 -0.552649 3.38223
O 23.6459 0.825576 7.72897
H 24.4086 1.51627 7.80343
H 24.0011 44.0169 7.84011
O 22.6444 5.65152 6.6435
H 21.957 5.68721 7.33831
H 22.1909 5.10366 5.97125
O 21.018 1.35084 8.17734
H 22.0427 1.30924 8.07658
H 20.6725 0.697061 7.5367
O 26.8219 1.52738 3.2335
H 27.4063 0.904662 2.71403
H 27.0993 1.7261 4.079
O 29.1463 7.46173 44.8777
H 29.2812 8.0607 44.1321
H 29.6005 6.67262 44.612
O 30.416 8.49326 1.94655
H 29.7671 8.08857 1.39279
H 29.958 8.70478 2.74887
O 29.3551 8.10579 8.22603
H 29.2637 8.92257 7.75559
H 28.8802 7.4675 7.67799
O 28.1251 2.43319 6.35009
H 28.9185 2.258 6.80553
H 27.3513 2.12136 6.85323
O 27.4234 5.25759 5.78896
H 27.7651 4.31077 5.75838
H 27.5195 5.71802 4.88555
O 30.6477 41.5366 0.344041
H 31.2553 41.2539 44.8666
H 30.3694 40.6122 0.598005
O 30.3397 1.35349 7.74957
H 31.1069 1.5328 8.26712
H 30.2389 0.394335 7.85202
O 25.1455 4.96851 7.60101
H 24.3383 5.24399 7.1648
H 25.8689 5.21832 6.98062
O 25.0851 4.12447 2.29436
H 25.5235 3.37982 2.80767
H 25.6918 4.50476 1.61011
O 26.5248 5.46236 0.0432557
H 26.4277 5.28044 44.2797
H 27.0209 6.305 0.0498363
O 29.1426 -0.290117 1.7397
H 29.7459 43.174 1.40845
H 28.7492 43.9991 0.900386
O 31.8552 40.8067 42.9452
H 31.6453 39.9892 42.5445
H 32.776 40.9207 42.6748
O 33.7997 39.393 15.5558
H 32.9263 39.1083 15.8479
H 34.0569 40 16.2785
O 31.8397 7.41907 9.32882
H 31.0321 7.6611 8.84198
H 31.6219 7.75531 10.2679
O 25.5474 2.52294 7.91766
H 25.3085 3.39481 7.76932
H 25.6803 2.57577 8.83782
