192
Atoms. Timestep: 7350
O 2.74224 3.42918 6.30582
H 1.87606 3.47175 6.59715
H 2.94435 4.33604 5.93706
O 4.56859 1.54644 44.0458
H 4.08473 2.34487 43.695
H 4.70547 0.866091 43.3649
O 5.8071 1.97592 1.14247
H 5.2742 1.52351 1.84486
H 5.536 1.56047 0.275972
O 5.75962 4.62549 0.509992
H 6.67926 4.67106 0.755902
H 5.67007 3.71215 0.766693
O 3.37254 5.88033 5.17037
H 3.66737 5.94174 4.27464
H 3.35429 6.83112 5.38261
O 3.9405 6.1759 44.0126
H 4.72893 5.97914 44.553
H 3.89236 7.07039 43.6723
O 3.29487 3.77724 42.688
H 3.43456 4.62114 43.0828
H 2.82754 3.92635 41.8468
O 4.18535 6.05026 2.69257
H 5.0303 5.81011 2.24533
H 3.63272 6.35093 1.98481
O 6.65505 9.0692 43.4398
H 7.05465 9.27091 42.6052
H 7.34212 9.21208 44.0476
O 3.87299 8.57161 42.6735
H 4.62253 8.98876 43.1937
H 3.11696 9.13298 42.9043
O 6.42428 41.2774 24.8841
H 5.70291 41.7689 25.3435
H 6.86624 41.9853 24.4858
O 4.0727 0.933432 5.73784
H 4.24792 0.386617 6.50703
H 3.60869 1.75905 5.96894
O 4.346 0.443745 3.06748
H 3.45266 0.179131 2.98192
H 4.4476 0.589575 4.08915
O 18.4269 42.6195 3.56827
H 19.1349 42.0895 3.99246
H 18.2206 43.3586 4.18673
O 7.51282 5.63455 2.57845
H 7.70192 6.40722 3.09867
H 7.97925 4.90161 3.01688
O 1.73673 8.27411 8.85865
H 1.18799 7.48498 8.90776
H 1.75717 8.53838 9.8239
O 11.6418 42.1947 2.41574
H 12.5124 41.8701 2.32128
H 11.1043 41.4528 2.65573
O 10.5493 0.737718 42.7303
H 10.032 1.5609 42.7212
H 10.9371 0.617675 41.8678
O 15.2678 6.06165 3.62493
H 14.3495 6.37198 3.87442
H 15.0294 5.0967 3.57365
O 13.9148 3.31275 3.71323
H 13.0528 3.64294 3.94279
H 13.7948 2.8982 2.87305
O 8.53917 3.00818 6.6088
H 7.99589 3.39113 7.32286
H 8.85553 2.14712 6.93235
O 8.89445 1.64351 1.9908
H 9.57647 1.34468 1.36765
H 8.04293 1.79972 1.49741
O 16.6396 41.3731 1.98922
H 17.1388 41.7547 2.66657
H 17.1466 41.7833 1.28848
O 14.718 0.724012 5.1696
H 14.5019 1.52087 4.66154
H 14.26 0.847877 6.0019
O 9.18628 3.68716 3.85876
H 8.96647 3.43282 4.76816
H 9.23627 2.8508 3.33485
O 13.3395 2.50981 0.882107
H 13.9389 2.39492 0.131556
H 12.6853 1.80749 0.844402
O 11.0247 0.442477 0.474884
H 11.0111 0.228366 44.7706
H 11.2252 43.8493 1.06067
O 13.916 40.7844 1.69051
H 14.0242 40.0063 1.13776
H 14.7672 41.1779 1.65749
O 17.7264 0.768577 5.38162
H 17.747 1.51767 4.76512
H 16.7832 0.625932 5.58067
O 11.6729 -0.193043 4.56046
H 11.6314 -0.760023 3.81658
H 12.6208 -0.0465793 4.74847
O 11.7346 4.82135 4.66718
H 11.6491 5.13111 5.55491
H 10.8554 4.69426 4.37065
O 9.90559 43.7737 6.68827
H 10.6398 43.8492 6.07458
H 10.0872 42.9407 7.17289
O 18.3298 3.0375 3.68653
H 18.2108 3.96599 3.79262
H 18.8428 2.96752 2.87906
O 18.1746 11.1428 1.84673
H 18.148 10.2223 2.12265
H 18.7102 11.1366 1.04031
O 22.0141 5.5886 3.8781
H 22.3615 5.92166 3.03461
H 22.54 4.81573 4.1231
O 21.6538 7.7859 5.72941
H 21.1812 8.58109 5.45977
H 21.6885 7.25072 4.9265
O 21.7127 43.5614 8.98999
H 21.378 42.7914 9.48586
H 22.3753 -0.17021 9.57746
O 19.1849 6.18761 6.53509
H 19.3604 5.46972 7.12354
H 20.0391 6.57674 6.42271
O 16.183 13.536 2.39018
H 16.8563 12.8283 2.39377
H 16.3247 13.8563 1.47504
O 23.896 44.1098 10.5259
H 24.7367 44.169 9.99995
H 24.1741 0.42137 11.3276
O 20.3078 4.30702 8.52311
H 20.2398 3.32118 8.40366
H 20.6885 4.27946 9.43108
O 18.0334 5.73784 4.09217
H 17.0665 5.57548 4.19674
H 18.4742 5.77615 4.96981
O 18.0335 8.30554 2.60381
H 18.2033 7.43487 3.02859
H 17.3465 8.16289 1.96035
O 14.9096 15.8201 3.83523
H 15.2193 14.9212 3.8183
H 15.0771 15.9542 4.74933
O 26.2317 42.0891 7.53068
H 26.9 41.5712 7.13839
H 25.7099 41.4814 8.02109
O 26.384 44.5128 9.19864
H 26.6905 1.2974 8.90966
H 26.4897 43.8027 8.60899
O 24.6779 7.92526 6.86206
H 24.6447 8.75093 7.3938
H 24.0015 8.01632 6.18753
O 19.6795 1.39625 8.06592
H 19.2368 1.28783 7.18525
H 20.2046 0.627339 8.31078
O 28.4066 40.6849 5.94915
H 28.3653 40.802 4.98197
H 28.8994 39.8881 6.17707
O 22.1426 7.47142 41.6163
H 21.8888 7.04835 40.8118
H 22.1847 8.3906 41.5204
O 22.5598 10.1826 41.1087
H 23.138 10.6502 41.6449
H 22.776 10.5739 40.2783
O 32.4636 6.22278 3.68463
H 31.7284 6.16651 4.2922
H 33.1317 5.93605 4.30557
O 29.7886 3.59049 6.92164
H 30.4391 3.06927 7.34824
H 29.0075 3.34803 7.47279
O 30.2961 5.7689 5.28518
H 30.1967 4.90109 5.70007
H 29.621 6.22049 5.87349
O 26.0744 41.6508 0.623227
H 26.393 41.2408 -0.152444
H 25.6551 42.4581 0.415755
O 32.0118 2.72409 9.03727
H 32.9567 2.89589 8.90112
H 31.8754 2.60975 9.96834
O 25.5901 5.03178 7.54344
H 25.662 5.94613 7.20044
H 24.7218 5.00906 7.89835
O 22.9511 5.3086 1.01098
H 22.2239 4.72365 0.614532
H 23.2067 5.87124 0.210708
O 23.6776 6.07595 43.4201
H 24.6148 6.24464 43.161
H 23.2093 6.55005 42.6716
O 27.732 40.6744 3.10762
H 27.842 39.8422 2.76241
H 27.2868 41.1882 2.41756
O 24.1151 44.4159 45.1373
H 24.1925 0.134552 -0.960394
H 24.5419 1.10923 45.1989
O 26.719 21.1581 41.6414
H 26.5628 22.0319 41.1894
H 27.6889 21.057 41.5802
O 32.8502 8.81654 2.51161
H 32.8099 7.93168 2.73875
H 33.292 8.98472 1.6754
O 27.375 3.11119 8.50508
H 26.7327 3.64157 8.08249
H 27.6912 3.59189 9.32137
