192
Atoms. Timestep: 5300
O 0.288946 1.35393 4.35186
H 46.4214 1.14325 3.84159
H 0.217812 2.29777 4.80469
O 4.06314 2.34832 43.9821
H 4.32184 3.21655 43.5472
H 4.32684 1.69014 43.3821
O 4.84648 2.66349 1.42281
H 4.62931 1.78727 1.79255
H 4.61168 2.63718 0.473522
O 4.9235 5.22567 2.74994
H 5.3272 5.19367 3.62614
H 5.00654 4.33269 2.35723
O 0.305609 3.98459 4.86131
H 0.833961 4.37064 4.15529
H -0.0147685 4.6362 5.39352
O 4.81411 7.34767 45.1366
H 5.03527 6.96199 0.780987
H 5.65018 7.77802 44.882
O 4.98253 4.48812 42.5508
H 4.94988 5.38652 42.9446
H 5.51019 4.55946 41.7296
O 2.17535 5.18258 3.34
H 3.01668 4.83508 3.15312
H 1.91624 5.4822 2.47981
O 2.73405 9.37166 45.0681
H 3.39918 8.67359 44.9816
H 2.0384 9.12694 44.4612
O 6.81305 9.23636 44.0193
H 7.31484 9.14124 43.1947
H 7.20227 9.9558 44.4912
O 18.573 31.4537 30.7113
H 19.2539 30.8461 30.5254
H 17.9806 30.8894 31.2637
O 2.25394 43.8854 4.2914
H 1.90554 43.1145 3.85854
H 1.48881 0.362323 4.27347
O 4.33085 0.431575 2.76262
H 4.66485 43.6515 2.62019
H 3.63733 0.270308 3.45704
O 15.4691 42.2933 7.24781
H 15.7612 41.6871 7.90855
H 16.1522 42.9653 7.22719
O 6.44773 4.95998 5.52613
H 6.52331 5.13556 6.48301
H 7.10951 4.23912 5.35824
O 44.9523 19.3978 40.1075
H 44.169 19.649 40.6285
H 44.6505 18.563 39.7026
O 12.6998 0.497295 0.757335
H 13.076 43.7982 1.17031
H 13.3369 0.826488 0.0977731
O 10.8814 3.85504 43.1372
H 11.669 3.6259 42.6328
H 10.1605 3.97184 42.5245
O 15.9013 6.60183 4.2953
H 15.4207 7.3416 3.99017
H 15.2458 5.88087 4.4367
O 13.8544 4.10139 4.94046
H 12.9261 4.43217 4.9029
H 13.8436 3.51439 4.09011
O 9.21012 0.764421 5.83744
H 9.50032 44.0748 5.41939
H 9.61476 0.70753 6.6996
O 7.61694 2.62575 1.96197
H 8.2242 2.55751 1.21587
H 6.79704 2.73601 1.57425
O 13.5812 41.9026 4.77208
H 14.1987 41.8424 5.47925
H 12.7687 41.9485 5.28921
O 14.5058 2.94145 7.55712
H 14.3873 3.33488 6.64825
H 14.1519 3.55455 8.1699
O 8.40105 3.62418 4.52099
H 8.80797 2.86131 4.97415
H 7.98833 3.35598 3.71143
O 12.9503 2.72157 2.52693
H 12.9502 1.78568 2.23109
H 12.1674 3.03672 2.07645
O 10.37 2.52279 0.238889
H 10.5556 2.9335 44.5645
H 10.7235 1.65551 0.136872
O 14.1541 42.1679 1.75891
H 14.4368 41.3628 1.33582
H 13.9294 42.0111 2.68874
O 17.0138 0.763081 7.45805
H 17.3045 0.873667 6.57218
H 16.4059 1.49882 7.69178
O 13.4485 0.337972 8.33639
H 14.0441 43.7588 8.07775
H 13.8937 1.06587 7.96664
O 11.2613 5.04655 4.1624
H 11.1299 5.98324 4.18381
H 10.3652 4.7577 4.3487
O 10.7856 43.6942 8.02179
H 11.6768 43.9522 7.85233
H 10.7409 43.8119 8.94884
O 18.0526 1.30205 4.79814
H 18.6309 2.02916 4.86247
H 17.5556 1.52538 3.99127
O 16.6938 7.99783 44.5683
H 15.9172 7.84775 43.9957
H 16.9554 7.12053 44.8489
O 24.8138 5.3693 4.00256
H 24.5693 5.9115 3.22446
H 25.3567 5.96152 4.5145
O 22.8636 3.9171 5.4329
H 23.4548 4.5706 4.9774
H 23.425 3.07839 5.43501
O 21.3015 0.16723 9.8957
H 21.3924 43.6102 10.5601
H 22.0562 0.0453567 9.32247
O 20.0443 3.9262 5.49702
H 19.8721 4.1352 6.42701
H 21.0037 3.80822 5.48082
O 17.7382 10.9227 43.9687
H 17.9214 11.0855 43.0728
H 17.2287 10.1286 44.0395
O 23.4767 0.38901 7.7092
H 24.4215 0.646686 7.67034
H 23.515 43.8262 7.03276
O 20.2023 4.70752 8.20384
H 20.0552 3.80435 8.56618
H 19.5558 5.28649 8.6328
O 18.1914 4.76014 3.63653
H 17.7421 5.49154 4.08131
H 18.7793 4.4324 4.32733
O 17.4813 5.5889 0.910686
H 17.9442 5.72209 1.73913
H 17.1776 4.67819 1.10408
O 19.1124 12.5347 0.98933
H 18.3211 12.5698 0.427502
H 19.4982 11.692 0.806383
O 27.4224 42.4268 6.44276
H 27.8839 42.6682 5.6586
H 27.7628 41.6267 6.85818
O 26.1913 0.526661 7.34528
H 26.6052 1.11787 8.00366
H 26.8721 43.9125 7.26544
O 23.0653 5.35823 7.89181
H 22.2383 5.47037 8.34383
H 22.9532 4.95999 7.02205
O 19.5669 2.26436 9.29699
H 18.6866 1.88804 8.93116
H 20.1263 1.58173 9.64144
O 28.5878 43.7359 4.39251
H 27.7176 43.8302 4.04531
H 28.7423 0.457311 4.87432
O 24.0502 8.37468 43.3753
H 23.3821 8.50433 42.7752
H 24.6717 9.1335 43.3323
O 25.4815 10.4015 42.0537
H 24.8957 11.1043 42.1038
H 26.3387 10.7032 42.1601
O 28.9807 7.62561 5.90436
H 29.4823 8.1588 6.5515
H 29.3723 6.81602 5.48537
O 29.491 2.40919 6.69825
H 30.3153 2.25636 7.15862
H 28.8589 2.62248 7.39354
O 30.1116 5.08791 5.27892
H 29.8511 4.37493 5.90289
H 30.486 4.62561 4.52468
O 25.0302 42.1821 0.619283
H 24.4407 41.401 0.294072
H 25.1156 42.6331 44.9832
O 32.0295 1.90263 8.11411
H 32.8654 2.06999 7.69368
H 32.3093 1.35363 8.84593
O 25.4919 4.80184 9.17407
H 24.7097 5.10902 8.63001
H 25.4365 5.19593 10.0317
O 23.9544 6.82098 1.83931
H 23.8408 7.8024 1.80988
H 24.3797 6.47306 1.03694
O 25.4719 6.35904 44.6921
H 25.6199 5.47425 44.3147
H 25.0447 6.78447 43.9419
O 25.9171 43.2371 3.43708
H 25.1182 43.6838 3.30255
H 25.9852 42.7406 2.62588
O 24.4457 39.9055 44.0553
H 23.9063 39.3421 43.4741
H 24.895 39.2404 44.5714
O 31.3517 27.066 33.1269
H 31.4611 27.7033 32.3916
H 31.9083 26.3337 32.8376
O 28.0419 9.52097 3.94071
H 28.2156 8.88987 4.64357
H 28.3208 10.3827 4.21164
O 27.2209 2.49841 9.21196
H 26.6686 3.27374 9.09402
H 27.1782 2.23723 10.0808
