192
Atoms. Timestep: 5550
O -0.111829 1.74807 5.43214
H 46.0619 1.90971 6.1197
H -0.00864977 2.72013 5.35698
O 3.91272 2.19977 43.5896
H 3.91582 3.06802 43.0595
H 3.63619 1.59758 42.8983
O 5.18724 2.69069 1.23649
H 4.89024 1.85152 1.6958
H 4.84985 2.7001 0.316214
O 4.97329 5.57194 2.41933
H 5.46324 5.52697 3.26492
H 4.99674 4.68165 2.01546
O 0.409587 4.75672 5.37483
H 1.06876 4.9623 4.68714
H 0.605435 5.21143 6.14777
O 5.11092 6.84996 44.6891
H 5.47157 6.42162 0.335521
H 5.64103 7.58842 44.3568
O 4.49363 4.82954 42.9883
H 4.71186 5.5645 43.5951
H 4.77799 5.13081 42.0782
O 1.99733 5.24047 2.95952
H 2.88999 5.53619 2.91449
H 1.81814 5.00726 2.03051
O 3.18065 9.22105 45.0043
H 3.37816 8.31443 45.2197
H 2.33095 9.17952 44.5644
O 6.76366 9.07307 43.6296
H 7.57108 9.60292 43.4323
H 6.15084 9.75923 43.9425
O 17.0163 32.6484 30.014
H 17.8479 33.0375 30.0105
H 17.2479 31.6995 29.952
O 2.01668 43.6897 4.34471
H 2.30086 43.3661 5.17371
H 1.22115 0.0819003 4.49086
O 4.66133 0.355976 2.74682
H 5.27853 44.787 3.37253
H 3.77944 0.177681 3.13404
O 15.2911 42.6857 6.80724
H 15.6148 41.8323 7.06148
H 15.9701 43.4015 6.97471
O 6.46882 5.45365 4.95092
H 6.66143 6.15909 5.61202
H 7.23977 4.85426 5.11138
O 45.3262 17.9761 41.8833
H 46.0168 18.2027 41.192
H 45.3039 16.9282 41.8096
O 13.169 0.0429127 0.295669
H 13.3463 43.2959 0.675474
H 13.7524 0.0929429 -0.477375
O 10.7291 3.08797 42.3068
H 11.6364 2.86249 42.2031
H 10.5546 3.65748 41.5677
O 15.7994 5.71907 4.40703
H 15.9417 6.45522 4.97215
H 15.2194 5.11807 4.87332
O 13.805 3.90171 4.95114
H 12.9598 4.31639 4.86896
H 14.0156 3.50886 4.03449
O 9.02091 0.343919 5.19751
H 8.80713 43.7307 4.62399
H 9.46158 -0.0940597 5.95876
O 7.87298 2.39401 2.22929
H 8.49846 2.47388 1.49092
H 7.03686 2.69636 1.88955
O 14.3927 41.5658 4.3716
H 14.8763 42.0382 5.1062
H 13.7155 40.9858 4.70727
O 14.3548 2.56231 7.64633
H 14.1584 2.95671 6.77966
H 14.2559 3.2866 8.25709
O 9.09649 3.52847 4.39459
H 9.1729 2.71308 4.91874
H 8.56964 3.29285 3.58711
O 13.1013 2.74663 2.54621
H 13.1905 1.90132 2.05795
H 12.2414 2.95238 2.40182
O 10.3468 2.65091 0.637875
H 10.3417 3.15395 44.9369
H 10.7372 1.82696 0.29656
O 14.1115 41.8873 1.51617
H 14.0868 40.9727 1.25651
H 14.2706 41.8506 2.48254
O 17.1155 0.809127 7.16062
H 17.7337 0.94068 6.42703
H 16.6482 1.6079 7.02773
O 12.8673 0.204265 8.63428
H 13.4865 43.7017 8.21524
H 13.0718 1.04657 8.27409
O 11.334 4.81518 4.37603
H 11.0244 5.63072 4.7675
H 10.514 4.31476 4.24032
O 10.4718 43.6848 7.81847
H 11.3366 43.9549 8.22747
H 10.1872 42.9258 8.30458
O 18.036 1.90579 4.60552
H 18.1577 2.80099 4.22025
H 18.4783 1.33354 3.92242
O 17.0456 8.34944 44.3814
H 17.4578 7.66552 43.8689
H 17.0669 7.93603 45.2429
O 24.428 5.90316 3.89398
H 24.5608 6.09295 2.98768
H 24.9636 6.4452 4.42413
O 23.407 4.1246 5.67931
H 23.8985 4.51157 4.9589
H 23.2477 3.22009 5.58921
O 21.2674 0.715902 9.34399
H 21.5169 44.5492 10.2244
H 22.0905 0.550983 8.71542
O 20.3147 4.7837 5.51651
H 19.9872 4.82319 6.44103
H 21.2446 4.70409 5.53031
O 17.4453 11.0821 44.7779
H 16.5955 11.4723 44.6408
H 17.2544 10.1262 44.9025
O 23.1728 -0.0334721 7.60978
H 24.1362 0.121404 7.77733
H 23.0334 43.2011 7.29391
O 19.9042 4.8463 8.40877
H 19.5833 3.98724 8.71059
H 19.2065 5.46827 8.59444
O 18.3093 4.50911 3.34288
H 17.5774 4.91103 3.85419
H 19.1462 4.83333 3.67743
O 17.296 6.14741 0.982925
H 18.0513 5.58331 1.19069
H 16.7826 6.13361 1.79344
O 18.581 12.9738 1.31948
H 18.2443 12.3892 0.637492
H 19.2283 13.3719 0.76112
O 27.6914 42.276 6.93256
H 28.1777 42.5103 6.10274
H 28.0928 41.4463 7.30903
O 25.8726 0.331146 7.61945
H 26.3951 1.0244 8.06592
H 26.4277 43.6232 7.35308
O 23.8853 5.46908 8.20342
H 22.9903 5.79635 8.38278
H 23.6822 4.91331 7.45406
O 19.0981 2.2833 9.38221
H 18.4461 1.9137 8.76474
H 19.8876 1.68615 9.38601
O 28.5744 43.3982 4.46804
H 27.7717 43.2566 3.90307
H 28.5848 0.221965 4.55267
O 23.5598 8.12959 42.8613
H 22.769 8.49497 42.5503
H 24.1526 8.74485 42.4705
O 25.1318 10.6884 42.3543
H 25.3588 11.0817 43.1893
H 25.9586 10.979 41.9307
O 29.3734 7.78492 5.59127
H 29.9571 8.09039 6.30523
H 29.5416 6.8312 5.64741
O 29.9798 2.59937 6.83247
H 30.8855 2.45919 7.24734
H 29.3831 2.5004 7.61096
O 29.9537 5.00812 5.39456
H 29.8674 4.11894 5.752
H 30.4394 4.88847 4.54568
O 25.2782 42.7864 0.797122
H 25.1795 41.9519 0.413791
H 24.6201 43.3804 45.5707
O 32.5169 1.90705 7.94186
H 33.371 1.9145 7.46751
H 32.6725 1.34763 8.69955
O 25.9212 4.94217 10.1045
H 25.1355 5.09012 9.46071
H 26.0416 5.70934 10.6119
O 24.2402 6.76764 1.3109
H 24.0113 7.66276 0.957454
H 24.2807 6.30798 0.466954
O 25.1195 5.8135 44.0048
H 25.0799 4.87422 43.6639
H 24.7939 6.37273 43.3026
O 26.0308 42.9521 3.47989
H 25.6045 42.3051 4.01528
H 25.5798 42.9666 2.56236
O 24.2473 39.9632 44.2155
H 24.6933 39.7509 43.415
H 23.703 40.7577 43.9392
O 30.8291 26.368 34.0656
H 31.3471 25.7172 34.5101
H 30.1153 26.4716 34.6673
O 28.2145 9.54663 3.42854
H 28.7116 8.9985 4.0903
H 28.9034 9.92309 2.82563
O 27.2577 2.45925 9.36353
H 26.9148 3.33908 9.36385
H 27.2932 2.27955 10.3587
