192
Atoms. Timestep: 2350
O 1.68341 1.06395 45.1403
H 1.10654 1.14386 44.3738
H 1.13469 1.2571 0.785344
O 4.49338 4.96669 44.9266
H 4.63118 5.70408 44.2964
H 4.86337 4.22545 44.4669
O 5.06893 4.07286 2.8681
H 5.35378 3.15315 2.54767
H 4.91352 4.71647 2.15606
O 2.90979 4.17768 5.09394
H 3.33312 4.49878 5.88239
H 3.65101 4.13011 4.46087
O 0.181715 1.09891 2.2282
H 0.0820066 1.70509 2.97169
H 46.3946 0.528422 2.38116
O 1.86921 7.04532 4.47359
H 2.03254 6.12873 4.574
H 1.19797 7.21022 5.11849
O 5.91599 2.54076 43.6925
H 5.15821 2.01193 43.4979
H 6.48901 2.31876 42.9529
O 0.0291222 3.06944 4.2202
H 0.920558 3.15192 4.5636
H 46.3948 3.28699 4.99232
O 3.11651 8.95692 2.81989
H 2.54499 8.3899 3.32088
H 3.74201 8.40922 2.37249
O 46.7314 7.75014 6.43174
H 46.0796 7.27505 6.92814
H 46.5527 8.67949 6.57698
O 36.3722 16.8721 39.2072
H 35.917 16.1148 39.4926
H 35.9768 17.5648 39.7671
O 4.23856 44.0636 0.328022
H 4.03313 43.1411 0.615045
H 3.34179 0.365783 0.161555
O 5.7431 1.80969 1.56407
H 6.07587 2.11064 0.709611
H 5.10633 1.09811 1.31775
O 13.2683 43.0505 8.89236
H 13.1012 42.125 8.79857
H 14.2265 43.1723 9.00642
O 4.22657 5.3187 7.25168
H 5.17735 5.13144 7.21654
H 4.21808 6.28654 7.22416
O 41.5888 35.6086 20.4568
H 41.5083 36.2506 19.6038
H 42.0091 36.2226 21.08
O 9.79244 1.32864 4.06603
H 9.10669 0.966756 3.55358
H 10.5045 0.675226 4.10473
O 9.79752 7.18356 43.0997
H 9.4191 7.9876 43.4772
H 10.5505 7.43126 42.5651
O 14.2495 5.66337 5.25146
H 13.8886 6.58919 5.33054
H 13.4572 5.22062 5.05217
O 11.4128 5.65377 4.9455
H 11.032 5.41936 5.84262
H 11.0974 5.04825 4.29885
O 9.02206 1.93462 6.87557
H 9.30264 1.43704 6.11054
H 8.91079 1.28241 7.57963
O 7.7159 4.85918 3.94057
H 8.47293 4.66542 3.36441
H 6.93343 4.59686 3.46063
O 13.3926 43.2879 5.974
H 12.9149 42.9558 6.74637
H 13.7954 44.0385 6.49812
O 11.7151 2.83424 7.71806
H 10.9881 2.58341 7.17175
H 11.4079 3.64589 8.13185
O 7.03247 4.37644 6.63434
H 7.35877 3.53568 6.95228
H 7.41123 4.49938 5.63703
O 10.5867 3.90168 3.02048
H 10.3158 3.04249 3.34012
H 10.646 3.84288 2.05209
O 10.3656 4.34774 44.8227
H 9.83033 3.92773 44.1017
H 10.3204 5.26411 44.4212
O 11.8012 43.5458 3.75829
H 12.4105 43.5555 3.0054
H 12.4398 43.5606 4.49477
O 14.6892 1.15003 7.52179
H 15.5142 1.23774 7.07437
H 14.3274 2.02354 7.45794
O 11.6294 1.21404 9.98386
H 12.104 0.355506 9.88658
H 11.8319 1.72796 9.16589
O 9.57989 5.27515 7.97116
H 9.28957 5.77036 8.7601
H 8.7176 4.96856 7.54811
O 9.32559 44.106 9.38601
H 10.1841 0.42526 9.61669
H 9.29572 43.3206 9.90884
O 17.5122 0.962447 6.48134
H 18.1155 1.74066 6.47204
H 18.1191 0.217334 6.75768
O 19.4798 5.64926 0.629534
H 20.1917 5.31234 1.17005
H 18.6432 5.36722 1.04373
O 22.41 4.5358 2.12505
H 23.1066 4.51048 1.43128
H 22.5999 5.36417 2.60929
O 21.5412 2.8285 4.67936
H 21.6078 3.19141 3.78762
H 21.9383 1.92257 4.61064
O 20.8112 43.5128 6.74296
H 21.3126 43.8482 5.97132
H 20.8241 42.5704 6.58269
O 19.0318 3.49446 6.15271
H 19.3732 3.64871 7.04533
H 19.8138 3.28896 5.59015
O 19.6648 4.74251 43.2935
H 18.7657 4.55825 43.018
H 19.5397 5.18957 44.1272
O 22.9074 0.385252 4.97349
H 23.3172 0.539539 5.88703
H 23.6944 0.233397 4.36917
O 20.8842 3.52151 8.58951
H 21.0153 2.54526 8.77722
H 20.6223 3.96153 9.41296
O 16.9205 4.83518 4.47923
H 16.0722 5.078 4.82845
H 17.4272 4.33969 5.11834
O 17.067 4.70757 1.70187
H 17.0298 3.74762 1.66543
H 16.774 4.82005 2.64732
O 21.4889 5.27628 41.0811
H 20.7415 4.92044 41.5922
H 22.1657 5.46884 41.7074
O 25.1632 44.0846 3.03842
H 26.075 0.344559 3.20804
H 25.1037 43.1329 3.15555
O 24.1553 0.693435 7.31945
H 24.8794 1.33648 7.5662
H 24.1483 44.1171 7.88842
O 22.785 4.93494 6.87829
H 22.1216 4.59338 7.57039
H 22.411 4.40205 6.08395
O 20.8876 0.656823 9.20365
H 21.3202 0.244092 9.88119
H 21.0577 0.149192 8.38264
O 27.4343 1.05731 3.36873
H 28.3176 0.623796 3.0689
H 27.6568 1.64507 4.07878
O 27.7815 7.75614 0.986593
H 27.4747 8.03472 1.91337
H 28.3775 8.47997 0.735272
O 29.9366 9.59721 0.075104
H 29.6492 9.97625 44.4062
H 30.5669 10.2293 0.397614
O 29.0173 6.83782 8.399
H 28.1302 7.04077 8.7277
H 28.8535 6.50906 7.5186
O 28.2956 2.60605 5.50264
H 29.1491 2.41768 5.99105
H 27.7027 2.81668 6.23797
O 28.2348 5.97325 5.40784
H 28.4454 5.04601 5.13384
H 28.6091 6.52852 4.78356
O 30.1655 41.6008 0.730616
H 29.661 41.3726 1.52798
H 29.4993 41.4877 45.3002
O 30.7504 1.6287 7.16535
H 31.4916 2.16341 7.4556
H 30.4779 1.27048 8.0104
O 25.4188 5.62445 7.57835
H 24.5164 5.63527 7.30097
H 26.024 5.73139 6.85267
O 24.7694 4.06924 0.243492
H 25.0041 3.55147 -0.565545
H 25.3775 4.83944 45.1758
O 27.1166 5.43154 44.5433
H 27.2419 6.26239 44.046
H 27.3018 5.76659 45.4326
O 30.328 44.1071 2.7167
H 30.8306 43.6163 3.30143
H 30.3111 43.5711 1.9702
O 28.8066 40.5278 43.422
H 27.8863 40.7433 43.1237
H 29.2847 40.6626 42.5947
O 35.8972 36.2154 19.9
H 35.1642 35.8703 19.4565
H 35.6213 37.1015 20.0371
O 31.1441 9.00485 9.14851
H 30.5432 8.36486 8.64657
H 31.5572 9.50588 8.41394
O 26.1538 2.67787 7.81632
H 25.6122 3.52452 7.77331
H 26.6343 2.73939 8.68023
