192
Atoms. Timestep: 8850
O 3.88778 3.63278 6.25841
H 4.078 3.61324 7.19145
H 3.9214 4.60714 6.15429
O 5.71059 1.95144 43.581
H 4.89363 2.36485 43.2463
H 5.62198 1.05568 43.2036
O 6.69325 2.3677 0.791507
H 6.3723 1.66602 1.36046
H 6.38085 2.17616 45.0265
O 4.69304 4.23688 1.25719
H 5.55518 3.74147 1.38644
H 4.80169 4.69665 0.41783
O 4.42736 6.22565 5.84724
H 4.35721 6.39671 4.86936
H 5.34685 6.25652 5.92679
O 3.20827 5.38791 41.2415
H 3.33443 6.23791 41.6627
H 3.93019 5.39885 40.6367
O 3.4575 2.7714 42.4417
H 3.40695 3.71631 42.0452
H 2.59838 2.59473 42.8487
O 4.6464 6.39678 3.16676
H 5.58223 6.54921 3.06999
H 4.47254 5.60485 2.54941
O 8.12372 7.8873 40.5361
H 8.97641 7.61378 40.1895
H 8.36727 8.51562 41.1869
O 5.76822 6.15614 40.2361
H 6.52387 6.67058 40.4571
H 6.07302 5.66012 39.4629
O 44.3449 4.5651 20.5687
H 43.5411 4.20406 20.8632
H 44.122 5.51121 20.5392
O 4.03021 0.923669 4.89327
H 3.62501 1.76378 5.04729
H 4.57857 0.811032 5.7068
O 5.73542 0.498938 2.60868
H 6.19021 0.455067 3.42392
H 4.78179 0.520683 2.74067
O 17.3754 42.4947 44.1116
H 17.489 42.6968 43.195
H 18.0801 42.9892 44.5622
O 7.45624 6.46348 3.97901
H 7.72426 7.33844 4.22902
H 8.25212 6.0355 3.60393
O 4.78313 2.46941 20.7158
H 4.46363 3.31389 20.6552
H 4.40249 2.07303 19.9828
O 11.4512 42.5078 1.59189
H 11.8697 41.6839 1.34975
H 11.5156 42.5791 2.53537
O 10.351 43.8888 42.7474
H 10.1708 42.9848 42.4187
H 10.4769 0.179587 41.8751
O 14.3685 5.73818 3.84297
H 14.123 5.50225 4.73895
H 14.1731 4.97678 3.33833
O 13.8876 3.0285 3.27106
H 13.0876 2.92931 3.89095
H 13.8089 2.42476 2.46226
O 12.3097 4.03087 8.09114
H 11.8837 4.23241 8.94871
H 12.7433 3.23306 8.29481
O 9.22317 3.51184 1.38559
H 9.75536 2.80474 1.06239
H 8.2849 3.18373 1.23403
O 15.579 40.6382 45.0335
H 16.3236 41.1388 44.6905
H 16.0123 39.9246 0.336872
O 16.3324 2.56888 4.51318
H 15.4659 2.40885 4.13117
H 16.5189 3.50152 4.30324
O 9.44034 4.36498 3.87544
H 9.06277 3.70225 4.5151
H 9.47384 3.97315 3.00373
O 13.8924 1.83997 0.517942
H 14.2529 2.07925 44.8326
H 12.8974 1.53544 0.355535
O 11.4874 0.681648 0.264732
H 11.1845 0.489016 44.5309
H 11.5042 43.9126 0.692739
O 12.8908 40.4824 0.58579
H 12.9317 39.5348 0.684688
H 13.8133 40.6544 0.249491
O 19.474 0.395722 45.0561
H 19.2538 0.743661 0.749428
H 20.3175 0.848914 44.9344
O 16.4763 1.85377 7.43571
H 16.6726 1.22587 6.73688
H 16.169 2.60367 6.89451
O 11.9984 4.01665 5.2037
H 11.9617 3.88201 6.16938
H 11.1083 4.06508 4.85034
O 13.7497 1.66628 9.11463
H 14.5825 1.44333 8.65198
H 13.9832 1.45053 10.0007
O 17.8332 1.68588 1.85525
H 17.1658 1.86103 1.25101
H 17.4868 2.02798 2.71495
O 14.2078 11.0035 4.2339
H 13.6664 10.2568 4.47019
H 14.5642 10.7814 3.37476
O 19.2081 7.56169 2.92298
H 19.9768 7.38952 2.3446
H 18.9215 6.69118 3.1341
O 20.2454 8.16361 5.34856
H 20.313 9.0634 5.48547
H 19.8839 8.09346 4.4784
O 21.2439 0.3751 9.23467
H 21.2219 0.176251 10.1577
H 22.1815 0.620088 9.00855
O 18.5398 5.91696 6.27735
H 19.0648 5.22523 6.73138
H 19.0345 6.75897 6.32359
O 15.0363 13.3695 5.54117
H 14.7255 12.5264 5.2346
H 15.4118 13.1586 6.39743
O 23.9354 0.908868 9.45526
H 24.796 1.11696 9.07432
H 24.173 0.779009 10.3531
O 20.4672 4.56224 7.79615
H 19.9793 3.75873 8.1154
H 20.8206 4.96637 8.58242
O 17.2848 5.228 3.96663
H 16.4305 5.74012 3.92574
H 17.7764 5.50261 4.7249
O 12.5484 8.85536 4.59092
H 12.0979 8.92813 5.43848
H 12.8678 7.93563 4.61526
O 15.1878 15.9776 3.85036
H 15.1577 15.0505 4.1056
H 15.3166 15.7969 2.90936
O 28.0503 42.6034 8.26367
H 29.0087 42.5723 8.52311
H 27.9037 42.0371 7.48101
O 26.3137 1.2038 8.34887
H 26.8436 1.98995 8.55954
H 26.8811 0.412132 8.47684
O 22.7111 5.9106 5.82406
H 22.1579 5.17174 6.09225
H 22.0996 6.59808 5.6175
O 19.2378 2.25513 8.45579
H 18.3824 1.85788 8.60781
H 19.9254 1.65044 8.71689
O 28.3252 40.8391 5.93354
H 27.8173 40.5015 5.18695
H 28.848 40.0504 6.21914
O 22.5557 8.44733 41.2247
H 23.2243 8.48025 40.622
H 21.8018 8.52388 40.6735
O 20.1748 8.68819 39.4993
H 19.6233 9.45981 39.3014
H 19.7724 7.91281 39.1508
O 33.7434 4.72933 3.26872
H 33.1952 5.12211 3.96917
H 33.4098 5.02366 2.43234
O 30.5906 4.00978 6.9337
H 31.044 3.64497 7.65271
H 29.7422 4.13824 7.41136
O 32.0179 5.67413 5.17973
H 31.4825 5.23329 5.88175
H 31.7436 6.60148 5.26287
O 26.3779 41.0331 1.0033
H 26.4402 40.4439 0.190344
H 27.0102 41.7465 0.779613
O 31.6641 2.13015 9.58139
H 31.935 1.21778 9.5792
H 30.9594 2.04176 10.2389
O 25.3215 5.82465 6.91758
H 24.3722 5.78869 6.82176
H 25.584 6.03297 6.01902
O 21.4168 6.76876 1.14341
H 21.2923 6.99216 0.243439
H 22.1587 7.34072 1.38467
O 22.828 8.21899 44.1292
H 23.1079 9.15468 44.1295
H 22.7071 8.05365 43.2521
O 26.9193 39.8956 3.74574
H 26.7081 40.514 3.03345
H 26.5082 39.115 3.41245
O 28.3049 43.5183 1.21326
H 27.9985 0.25434 0.849897
H 29.2014 43.7991 1.3472
O 23.2778 16.8905 2.73462
H 24.2262 17.0607 2.5326
H 23.3956 16.1601 3.41925
O 36.4787 5.59295 2.95064
H 35.637 5.21719 3.16015
H 36.8029 4.85124 2.52917
O 27.3284 4.16964 8.21479
H 26.602 4.50942 7.65863
H 27.4241 4.88761 8.80882
