192
Atoms. Timestep: 4600
O 46.9519 0.46923 2.96054
H 46.4174 0.0981067 2.21688
H 46.4923 1.28093 3.14786
O 4.73359 3.2221 44.2276
H 5.30009 3.5523 43.554
H 3.86159 3.10755 43.8492
O 5.48561 2.508 1.74965
H 5.18304 1.63913 2.01295
H 5.22598 2.69081 0.846131
O 3.8446 5.40753 3.31319
H 4.58474 5.23682 3.94465
H 4.29729 5.06594 2.52398
O 46.0072 3.15382 3.12747
H 46.6539 3.84968 3.31204
H 45.1733 3.65774 2.95334
O 4.06332 8.1936 1.77697
H 3.8706 7.53108 2.45047
H 5.04414 8.1349 1.65676
O 5.30564 4.30494 41.4674
H 5.60731 5.11111 41.1378
H 5.05108 3.85274 40.6143
O 1.22867 5.08046 3.92929
H 2.13156 5.10042 3.67319
H 0.749003 5.87882 4.21704
O 1.63956 9.10308 0.0236314
H 2.57488 9.1864 0.260981
H 1.53707 8.19958 45.1345
O 7.07755 8.61613 1.22908
H 7.30666 8.45997 0.345856
H 7.88705 8.44147 1.67578
O 22.776 27.8863 32.7751
H 22.1752 28.6353 32.8844
H 23.4325 28.291 32.2056
O 2.22356 43.1059 3.52347
H 2.01405 42.6713 4.38769
H 1.50284 43.7321 3.33371
O 4.74999 -0.144382 2.3843
H 5.27144 43.1421 2.37682
H 3.82385 43.738 2.51676
O 15.2046 43.0475 7.70724
H 15.87 42.5115 8.09274
H 15.6681 43.6234 7.0781
O 5.81399 4.97054 5.02606
H 6.3095 5.67405 5.39708
H 6.53641 4.4649 4.70325
O 43.5266 23.4139 35.2388
H 43.7949 23.6604 36.2052
H 44.0616 22.5389 35.1013
O 13.6451 1.01142 1.62668
H 13.6493 0.243039 2.15093
H 14.5397 1.18022 1.2937
O 11.3846 5.40418 44.0295
H 12.093 6.05612 43.8789
H 10.8378 5.64136 43.2442
O 15.7723 5.84885 5.35061
H 15.8109 6.84391 5.33547
H 14.9259 5.68134 4.85942
O 13.3428 4.5683 4.79604
H 12.4551 4.84795 5.12816
H 13.2976 4.17151 3.90033
O 7.91769 1.52549 7.42584
H 7.6064 0.630751 7.29759
H 8.65279 1.40737 7.99611
O 8.32062 2.558 2.61335
H 9.05855 2.6218 1.97672
H 7.51347 2.71679 2.11228
O 13.7093 41.2354 5.85756
H 14.2496 41.7073 6.48015
H 13.3844 40.4626 6.26717
O 14.869 3.15077 7.12617
H 14.3775 3.54975 6.4365
H 15.2454 3.885 7.55414
O 8.1133 3.64766 5.04844
H 8.01783 3.07261 5.79026
H 8.36038 3.22338 4.21029
O 12.8788 3.51926 2.48713
H 13.1976 2.54036 2.35379
H 12.1333 3.57587 1.89216
O 10.4214 2.84882 0.546619
H 10.4353 3.59485 -0.020326
H 11.0002 2.16612 0.146274
O 12.8539 43.0083 2.94093
H 12.3284 42.4837 2.32008
H 12.9394 42.3714 3.71263
O 16.7834 0.91863 6.2215
H 17.5105 0.996825 5.56267
H 16.4507 1.78525 6.41822
O 13.2783 0.991835 8.84949
H 13.8664 0.237345 8.61664
H 13.5296 1.74914 8.27695
O 10.7194 5.31912 5.80708
H 10.5589 5.86981 6.58644
H 9.94711 4.71421 5.78281
O 10.6086 0.850854 9.54421
H 11.4829 0.779446 9.15712
H 10.8374 0.778046 10.4564
O 19.0452 1.24173 4.45191
H 19.3378 2.19752 4.43788
H 19.6172 0.818976 3.83508
O 16.8698 7.10613 44.49
H 15.9366 7.01265 44.3265
H 17.1099 6.22379 44.7172
O 23.9823 3.76153 3.68738
H 23.9188 4.69015 3.32096
H 24.6066 3.36063 3.06779
O 22.3097 2.54554 5.43555
H 22.9287 2.80491 4.76855
H 22.3437 1.59037 5.53414
O 21.403 43.9235 9.79191
H 21.9985 43.7448 10.5278
H 21.9674 44.0828 8.97146
O 19.9832 3.92946 5.002
H 19.7094 3.98557 5.92451
H 20.8383 3.56829 5.12783
O 18.8161 8.92694 43.358
H 19.1834 8.10385 43.6833
H 17.8898 8.7077 43.4807
O 23.0463 43.7817 7.5239
H 23.9893 -0.231605 7.75791
H 22.9558 42.9298 7.11007
O 19.5518 3.89196 7.90804
H 19.4395 3.06397 8.33043
H 18.6878 4.3097 7.89767
O 18.1362 5.32951 3.52409
H 17.326 5.38853 4.05432
H 18.8043 4.89281 4.01957
O 18.2481 5.11039 0.663786
H 18.054 5.01555 1.60556
H 19.137 5.36475 0.572312
O 20.0949 11.138 44.2801
H 19.5923 10.3273 44.309
H 19.7432 11.317 43.4068
O 27.1884 42.8469 6.48711
H 27.3832 43.1132 5.57233
H 27.786 42.1338 6.57119
O 25.4596 0.183633 8.57466
H 25.5902 1.09223 8.42392
H 26.1277 43.8446 8.09982
O 22.6107 4.19257 7.94649
H 21.7342 4.02362 8.19725
H 22.8035 3.65405 7.15928
O 19.3639 1.6749 9.75024
H 18.6289 1.09952 9.33488
H 20.0691 1.0099 9.86333
O 27.9615 43.832 3.95045
H 27.7967 43.5942 2.99623
H 28.2948 0.588148 3.88095
O 25.4242 9.27778 43.2907
H 24.5751 9.11266 42.7562
H 25.9685 9.74398 42.6964
O 26.5682 10.5651 40.878
H 27.3342 10.9961 40.5825
H 25.9782 11.2563 40.716
O 28.5139 7.21359 6.46447
H 28.9791 6.95482 7.23268
H 29.0546 6.66293 5.83266
O 29.2658 2.6771 5.69035
H 29.8091 2.31817 6.44406
H 28.3999 2.95133 6.0456
O 29.9358 5.20609 4.96424
H 29.733 4.24266 5.09684
H 30.0604 5.39161 3.97425
O 25.3335 42.0349 0.566688
H 25.5633 41.0994 45.6722
H 24.5818 42.1134 1.12436
O 30.6854 1.54332 8.05276
H 30.5082 1.81964 8.968
H 31.0152 0.655353 8.09712
O 25.2142 5.37401 8.92192
H 24.2388 5.14169 8.87871
H 25.2432 6.10586 8.26965
O 24.1838 6.43767 2.73158
H 23.3903 6.93646 2.77723
H 24.7865 6.74944 2.01039
O 25.7756 7.84561 0.762567
H 26.7305 7.73838 0.614381
H 25.5275 8.25008 -0.0679888
O 27.1188 44.2056 0.896255
H 26.4217 43.6047 0.578793
H 27.2689 44.7812 0.202832
O 25.1498 39.3531 44.5171
H 24.5069 38.8288 44.1414
H 25.9563 38.8516 44.27
O 32.9878 29.0148 30.1107
H 32.3241 29.5642 30.6016
H 33.6108 29.6924 29.7904
O 28.0347 10.0523 5.96662
H 28.2191 9.075 5.9915
H 28.8171 10.397 5.62697
O 26.6067 2.94428 8.2267
H 26.1049 3.82972 8.38051
H 27.3307 2.99329 8.78264
