192
Atoms. Timestep: 9350
O 3.41217 3.24435 7.16676
H 4.0243 2.91388 7.88628
H 3.96718 3.96028 6.78691
O 5.77503 1.37565 43.1994
H 5.08866 1.96191 42.7618
H 5.33224 0.530157 43.0923
O 6.24646 2.01423 0.813448
H 5.78087 1.36174 1.42201
H 6.08197 1.75111 45.0762
O 4.59314 4.44365 1.60296
H 5.23731 3.77078 1.21569
H 3.78202 3.92579 1.64326
O 5.04449 5.06135 5.85253
H 5.20599 5.51317 4.99056
H 5.43684 5.65568 6.52714
O 3.9577 5.40975 40.1778
H 3.9761 6.25842 40.5991
H 4.67423 5.33743 39.5806
O 3.92209 2.91471 42.0043
H 4.17892 3.6559 41.3745
H 2.99558 3.09252 42.2555
O 5.28033 6.34749 3.25376
H 5.92896 6.93365 2.92142
H 4.85509 5.90749 2.52731
O 7.89359 7.3239 39.6635
H 7.87354 7.72607 40.5153
H 8.17586 8.05538 39.0551
O 6.12718 5.42496 38.4542
H 6.74934 5.94654 38.9216
H 6.65221 5.02838 37.7524
O 41.1991 7.10068 19.2149
H 41.9707 6.96143 18.7278
H 40.9293 6.16363 19.3516
O 3.43923 1.22192 4.80708
H 3.31915 1.93193 5.42416
H 3.82945 0.541364 5.37768
O 5.31754 0.295841 2.87907
H 5.79975 43.9652 3.56938
H 4.575 0.784413 3.24902
O 17.563 41.5762 43.0714
H 17.6613 41.3206 42.1488
H 17.7575 42.4961 43.1133
O 8.19438 7.23717 4.17848
H 8.62088 7.81484 4.83205
H 8.48725 6.38034 4.46814
O 5.80341 0.564707 24.5931
H 6.545 1.26565 24.6386
H 4.97407 1.1577 24.5336
O 11.5405 42.6313 1.16904
H 12.2499 42.0419 0.843075
H 11.7476 42.8523 2.08589
O 10.3664 1.61298 42.6933
H 11.1123 1.70005 42.1396
H 9.68195 1.24524 42.1584
O 13.6169 5.87326 4.53862
H 13.0047 5.23476 4.98798
H 14.0666 5.3727 3.86701
O 14.3898 3.582 3.20267
H 13.7464 3.36403 3.92893
H 14.1471 3.16935 2.39954
O 12.7147 3.95522 8.27097
H 12.4315 4.27092 9.14085
H 13.6787 3.94015 8.41658
O 8.77767 1.99201 1.90928
H 9.49483 1.89103 1.22393
H 7.91301 2.02567 1.42294
O 16.224 40.7177 0.000871454
H 16.6753 40.876 44.3334
H 16.7497 41.102 0.734381
O 17.3396 3.28097 3.9816
H 16.4677 3.15392 3.59245
H 17.4214 4.22907 4.113
O 9.27506 3.3333 4.2
H 8.62002 2.97513 4.79878
H 9.10833 2.86005 3.34694
O 13.4908 2.5527 0.706585
H 13.6292 2.95173 -0.14537
H 12.7406 1.95342 0.567257
O 11.1273 1.06614 0.310951
H 10.8537 1.12281 44.5794
H 11.3935 0.16348 0.535258
O 13.5723 40.8715 0.252364
H 13.275 39.9944 -0.00929262
H 14.5718 40.8721 0.192508
O 17.6989 0.236365 43.3462
H 17.5109 0.409117 44.2986
H 18.3328 0.929978 43.1354
O 17.0547 1.76338 6.70835
H 16.5634 0.95695 6.50343
H 17.202 2.16468 5.80818
O 11.9392 3.64377 5.17412
H 11.9123 3.64539 6.11039
H 11.0067 3.60547 4.88871
O 15.7972 3.82198 8.30472
H 16.3804 3.23893 7.82382
H 16.3458 4.45784 8.73311
O 17.8931 0.78043 1.24409
H 17.7013 1.51638 1.79271
H 18.2632 0.167575 1.93578
O 12.3835 11.5195 4.07011
H 12.5154 10.5332 4.11602
H 11.4987 11.5798 3.82011
O 18.7057 7.71012 2.81911
H 18.9468 7.96177 1.94868
H 18.0712 6.99781 2.77781
O 20.3783 7.8545 4.8844
H 20.4295 8.79887 4.98742
H 19.9518 7.71122 4.06373
O 21.6508 0.132564 9.3045
H 21.1523 43.6394 9.87196
H 22.5128 0.348148 9.73914
O 18.3733 7.15052 6.69345
H 18.6952 6.60484 7.43035
H 19.1415 7.19271 6.13151
O 13.7388 13.7598 5.8543
H 13.3688 13.0336 5.34751
H 13.4594 13.483 6.73522
O 24.5724 0.754472 9.84807
H 25.5377 0.830281 9.64315
H 24.5076 1.38995 10.5555
O 20.2009 4.94921 7.92428
H 19.9362 4.04085 7.77403
H 20.3007 5.01749 8.86681
O 16.8877 6.14348 4.43733
H 15.9054 6.1178 4.64337
H 17.3472 6.3952 5.27566
O 13.056 8.80119 4.85157
H 13.9959 8.61172 4.78541
H 12.7162 7.95137 4.61818
O 15.9663 15.0081 4.72263
H 15.2471 14.3756 4.88839
H 16.4665 15.1541 5.54303
O 28.8151 42.622 7.71417
H 29.6873 42.9719 7.60719
H 28.7466 41.7314 7.33531
O 26.9312 0.486178 8.36139
H 27.4756 1.0827 7.79607
H 27.4639 -0.26267 8.51837
O 22.8292 6.43879 6.47248
H 22.1067 5.9326 6.85704
H 22.3938 6.90459 5.73725
O 19.6382 2.05063 8.74536
H 18.9544 1.80321 8.14582
H 20.3552 1.38957 8.56126
O 28.3243 39.7976 6.89974
H 27.4413 39.7776 6.48118
H 28.8535 39.3147 6.24546
O 22.3307 8.43337 40.9693
H 22.9967 7.99517 40.392
H 21.4868 8.27534 40.4916
O 19.7217 7.94688 39.6263
H 19.2709 7.10805 39.6733
H 18.9559 8.49128 39.3497
O 33.9227 4.10095 3.80452
H 33.2361 4.59191 4.27258
H 33.5259 3.89898 2.97518
O 30.1277 4.62129 7.83447
H 30.5853 3.87535 8.31396
H 29.1751 4.40201 7.88758
O 32.0053 5.06975 5.6066
H 31.2046 4.59387 6.03615
H 31.9292 6.03644 5.86727
O 27.2847 41.7027 1.87072
H 27.3903 42.68 2.14509
H 27.8609 41.7208 1.20112
O 32.4239 2.99859 8.46053
H 33.1795 3.29902 7.9557
H 32.6288 2.07394 8.6501
O 25.5898 6.28512 6.2794
H 24.7141 5.91016 6.32865
H 25.4615 7.16249 6.6252
O 20.2266 8.073 0.0547112
H 20.9633 8.39181 -0.470079
H 20.3196 7.1222 -0.041884
O 22.5057 9.22759 43.7206
H 22.4574 10.1668 43.6513
H 22.4852 8.88052 42.715
O 26.6866 39.5982 4.22975
H 27.0629 40.0195 3.44934
H 25.8134 39.949 4.15738
O 28.9701 43.4227 0.0060679
H 29.906 43.5586 0.0941241
H 28.5792 44.1815 -0.438027
O 22.1442 15.3704 4.86792
H 22.1145 16.3714 4.86786
H 23.1168 15.2458 4.70598
O 36.5514 3.81154 3.69146
H 35.5495 3.99661 3.71764
H 36.7528 3.09699 4.21206
O 27.2002 4.31318 7.71631
H 26.6707 5.02073 7.42248
H 26.602 3.85126 8.36767
