192
Atoms. Timestep: 4750
O 46.8661 0.548152 2.88854
H 45.9935 0.23469 3.06677
H 46.9039 1.55374 3.04769
O 4.52643 3.06649 44.3016
H 5.22048 3.24841 43.65
H 3.80896 3.65948 44.0545
O 5.53917 2.29886 1.71027
H 5.18022 1.52454 2.12968
H 5.1974 2.33357 0.779074
O 4.14989 5.49763 2.99008
H 4.54548 5.35625 3.82349
H 4.56444 4.75298 2.51171
O 46.5843 3.26855 3.68339
H 47.1878 3.98457 3.68628
H 46.0727 3.47963 2.85993
O 4.26489 8.09025 1.35123
H 4.09034 7.32536 1.87128
H 5.21193 8.01893 1.12598
O 5.29639 4.50746 41.5938
H 5.76976 5.31134 41.551
H 5.06867 4.24862 40.6591
O 1.12383 5.52662 4.04379
H 2.00887 5.47708 3.64087
H 0.681894 6.35862 3.81785
O 1.74976 9.18456 -0.0476184
H 2.48633 8.56409 0.113465
H 1.0961 8.59012 44.8798
O 7.21874 8.78169 0.550717
H 7.5686 9.04403 -0.30011
H 8.07315 8.51888 0.971347
O 21.9049 28.6365 32.3215
H 20.9758 28.8056 32.4136
H 22.2035 29.5127 32.0704
O 2.20977 43.0851 3.94034
H 2.35329 43.0637 4.91468
H 1.3466 43.5048 3.7631
O 4.54549 -0.282296 2.5073
H 4.93301 43.1464 3.10178
H 3.61555 43.8178 2.71248
O 15.6147 42.9601 7.668
H 16.2544 42.5633 8.23936
H 16.1601 43.4835 7.07782
O 5.58106 4.98778 5.29634
H 5.65907 5.14835 6.2186
H 6.44767 4.61077 5.07762
O 43.84 22.5026 36.3927
H 44.2442 23.1779 36.0417
H 43.7461 21.9564 35.633
O 13.5852 1.12524 1.30497
H 13.1849 0.517359 1.9535
H 14.4768 0.704611 1.3021
O 11.2427 5.06436 43.9385
H 10.8827 5.66362 44.5686
H 11.4502 5.68403 43.2579
O 15.8592 6.15053 5.23115
H 15.8083 7.13144 5.38546
H 14.9534 5.80773 5.32331
O 13.3992 4.41029 5.02089
H 12.5962 4.80761 5.31417
H 13.2281 4.17256 4.06611
O 8.42177 1.26562 7.28972
H 7.95555 0.444964 7.05877
H 9.21843 0.945025 7.79311
O 8.33262 2.76433 2.21543
H 8.90638 2.57436 1.51886
H 7.50224 2.46353 1.89823
O 13.5527 41.4795 5.55389
H 14.1888 41.8457 6.18621
H 12.7931 41.3281 6.11692
O 14.8184 3.27781 7.2711
H 14.3556 3.42066 6.42317
H 15.3732 4.05424 7.35311
O 8.55829 3.39965 5.295
H 8.43385 2.71326 5.97151
H 8.34651 3.07571 4.39278
O 12.422 3.71315 2.27506
H 13.1099 3.17459 2.00025
H 11.6965 3.44619 1.6965
O 10.6428 2.65449 0.110984
H 10.725 3.19621 -0.690625
H 11.05 1.81739 -0.254202
O 13.0324 42.4891 3.04965
H 12.7797 41.5883 2.92677
H 13.3047 42.4963 3.96103
O 17.0238 0.934476 6.66824
H 17.6407 1.09108 5.91103
H 16.4299 1.69021 6.72483
O 13.4591 0.850724 8.48173
H 14.1598 0.265423 8.31131
H 13.7374 1.67806 8.17504
O 10.8544 5.39161 5.06389
H 10.3886 6.03522 5.60205
H 10.2478 4.65348 5.13561
O 10.3874 0.578801 9.02624
H 11.3461 0.577862 8.73063
H 10.446 0.906006 9.92445
O 18.9277 1.33917 4.52765
H 19.1108 2.28739 4.5363
H 19.7382 0.990398 4.81636
O 16.6568 7.23967 44.6073
H 16.1484 7.39983 45.4471
H 17.2966 6.57513 44.9265
O 24.4415 4.18313 3.97198
H 24.1972 4.80114 3.2861
H 25.1921 3.74377 3.537
O 22.5461 2.7337 5.44009
H 23.1518 3.10453 4.82415
H 22.8341 1.80569 5.59893
O 21.6521 44.1832 10.1227
H 21.5391 43.234 10.2157
H 22.3106 44.2762 9.3844
O 19.6429 3.9963 5.21708
H 19.4758 3.93788 6.18764
H 20.5723 3.64501 5.1155
O 18.4927 9.09922 43.5197
H 19.0845 8.35228 43.4231
H 17.8031 8.67021 44.032
O 22.9045 43.8516 7.55764
H 23.8644 -0.281742 7.63193
H 22.5688 43.029 7.20884
O 19.6087 3.66179 7.8574
H 19.5404 2.7903 8.31477
H 19.2485 4.24003 8.51906
O 17.7708 5.15374 3.26102
H 17.0813 5.49128 3.82477
H 18.4715 4.78617 3.86533
O 18.342 5.28896 0.527314
H 18.2438 5.41863 1.47219
H 18.4512 4.34921 0.379036
O 19.9309 11.5512 44.7316
H 19.5056 10.7516 44.362
H 20.7672 11.5517 44.2271
O 27.3293 42.776 6.78367
H 27.731 43.2084 5.9975
H 28.0566 42.2949 7.12045
O 25.5973 0.145757 8.14339
H 25.9205 1.12603 8.23468
H 26.3555 43.83 7.62278
O 22.8809 4.44764 7.83441
H 22.0507 4.1903 8.16828
H 23.0178 3.96826 7.01018
O 19.4481 1.48122 9.36798
H 18.5579 1.01034 9.37086
H 20.1833 0.932471 9.79156
O 27.9936 44.0781 4.28572
H 28.0109 43.8925 3.33102
H 28.5287 0.690958 4.27785
O 25.1405 9.06375 43.4175
H 24.5055 8.81086 42.6697
H 25.7527 9.61534 42.9603
O 26.2552 10.548 41.2111
H 26.8814 9.95098 40.7313
H 26.3396 11.3939 40.6553
O 28.6274 7.27687 6.37987
H 27.9341 6.78484 6.75133
H 29.0995 6.59167 5.96594
O 29.3844 2.23964 5.75366
H 29.939 1.85175 6.48605
H 28.5135 2.38235 6.04608
O 29.9936 5.24999 5.10796
H 29.892 4.25161 5.30522
H 30.1047 5.17489 4.12778
O 24.9321 42.0652 0.670463
H 25.2297 41.1336 45.8204
H 24.1389 42.1614 0.0624779
O 30.7425 1.64388 8.11533
H 31.1417 2.41943 8.4935
H 31.2831 0.900989 8.35931
O 25.1669 5.31132 8.89337
H 24.243 5.09808 8.67566
H 25.1539 6.26879 9.127
O 23.9453 6.59775 2.4828
H 23.6719 7.3168 2.99773
H 24.4036 6.80139 1.65333
O 25.8031 7.59451 0.542592
H 26.3309 6.97193 0.0578511
H 25.7064 8.23093 -0.247905
O 26.9176 44.2182 1.19056
H 26.2134 43.6285 0.801487
H 26.5551 45.0572 1.19954
O 25.0644 39.2093 44.27
H 24.6573 38.4118 44.6025
H 25.2855 38.9705 43.3343
O 32.6722 28.7039 30.7389
H 33.052 27.8154 30.9612
H 31.7151 28.5487 30.8704
O 27.9945 9.87929 5.51754
H 28.1774 9.00326 5.84856
H 28.3847 9.95857 4.69516
O 26.7999 3.06939 8.31699
H 26.2575 3.86037 8.28772
H 27.0345 2.89715 9.21964
