192
Atoms. Timestep: 6600
O 2.08311 3.44202 6.5909
H 2.32517 3.32903 7.54546
H 2.14527 4.38582 6.39348
O 4.95381 1.43647 43.4495
H 4.69726 2.24201 43.0212
H 4.31627 0.793662 43.2971
O 5.60058 1.96 0.972434
H 4.95178 1.51414 1.56243
H 5.4259 1.67995 0.0520806
O 5.19285 4.74689 2.00687
H 6.02112 5.14639 2.31958
H 5.33132 3.84965 1.72552
O 1.86777 5.99455 5.82248
H 1.90003 5.75579 4.86159
H 2.51066 6.67947 5.84927
O 3.73456 5.52454 44.7691
H 4.48795 5.33935 0.133056
H 3.88216 6.39523 44.3906
O 3.27099 3.59246 42.8149
H 3.32163 4.22471 43.6516
H 2.34567 3.62291 42.5315
O 2.7452 5.76196 3.2465
H 3.5092 5.2692 2.99117
H 2.13789 5.81343 2.52319
O 6.08496 11.0769 43.521
H 6.55113 11.498 42.8229
H 5.5249 11.7836 43.8093
O 5.28082 8.04036 44.4841
H 6.1036 8.46147 44.3907
H 4.71366 8.70998 44.1076
O 10.9908 37.6767 27.0712
H 11.3815 36.8714 26.7047
H 10.2943 37.2834 27.5929
O 2.42085 0.964328 5.1485
H 1.66246 0.448417 5.47751
H 2.22955 1.7418 5.67841
O 3.41501 0.508126 2.41335
H 3.38611 43.6755 2.6285
H 3.10389 0.900181 3.21914
O 17.1089 42.2323 5.95603
H 16.5721 41.9842 6.70901
H 17.1196 43.2046 5.99689
O 7.953 5.43669 2.36876
H 8.01334 6.36396 2.65391
H 8.09888 4.83294 3.09724
O 0.358006 12.1548 3.629
H 46.5665 12.1104 4.28749
H 0.733536 11.3167 3.75182
O 12.8902 42.7785 0.197366
H 13.4391 42.4563 0.938031
H 13.3096 42.3338 44.6235
O 10.3698 1.20999 42.6366
H 11.1056 0.949719 42.0951
H 9.64587 0.823212 42.1387
O 15.5118 6.57788 4.24454
H 14.9938 7.20948 4.8261
H 14.9996 5.75515 4.33205
O 13.7991 4.50299 3.71736
H 12.8311 4.44961 4.00017
H 13.734 3.92574 2.90202
O 7.28177 2.24998 6.27964
H 6.32656 2.26392 6.31204
H 7.45129 1.3401 6.14245
O 8.22389 1.61827 2.09193
H 8.94168 1.45124 1.433
H 7.51248 1.94924 1.5519
O 16.8824 40.5186 3.38525
H 17.1176 41.2328 4.01195
H 17.5843 40.6342 2.70911
O 14.366 2.25324 5.64223
H 14.2526 3.07956 5.13582
H 13.8446 2.31792 6.43839
O 8.73874 3.26103 4.29003
H 8.15676 2.95247 5.05687
H 8.69643 2.51133 3.65824
O 13.2621 2.81212 1.63653
H 14.0258 2.55149 1.11074
H 12.4157 2.31178 1.35395
O 11.1533 0.972349 0.312777
H 10.7004 1.00772 44.611
H 11.6201 0.165777 0.420244
O 14.3162 41.1167 1.92374
H 14.0108 40.2069 1.83725
H 15.1117 41.039 2.5364
O 17.0597 1.06531 5.98449
H 17.6252 1.55727 5.35779
H 16.2418 1.54536 5.87543
O 12.1717 43.9895 5.06805
H 12.8554 43.3527 4.78802
H 12.6353 0.68487 5.10004
O 11.1824 4.47649 4.5961
H 10.9447 4.89351 5.39591
H 10.3443 3.99087 4.40367
O 8.74035 43.8058 5.96953
H 9.46062 -0.365807 5.33602
H 8.85297 43.1135 6.60234
O 18.3033 2.67625 4.18462
H 18.4343 3.62541 4.13466
H 18.8372 2.2591 3.51495
O 18.2882 9.45362 1.01823
H 18.985 9.8935 1.54987
H 18.1146 8.57658 1.41114
O 24.3101 6.87979 2.61172
H 23.673 6.50309 1.98265
H 25.025 7.09006 2.01351
O 23.275 6.87198 5.19205
H 22.8882 7.71681 4.82095
H 23.6212 6.60998 4.31336
O 21.1833 0.166129 9.00648
H 20.5576 43.6759 9.3743
H 22.1251 -0.110794 9.09582
O 20.0157 6.26646 6.15705
H 19.8208 5.68996 6.87984
H 20.9495 6.22629 5.98903
O 16.2585 11.9352 1.43134
H 15.5978 11.9021 0.779161
H 16.6373 11.051 1.51404
O 23.7749 43.9241 9.87497
H 24.7056 43.8867 9.60956
H 23.791 0.447086 10.5673
O 19.2142 4.89831 8.65784
H 18.9275 3.98006 8.38186
H 18.5361 4.99071 9.35114
O 18.3044 5.36249 4.21549
H 17.4491 5.72433 4.49494
H 18.95 5.70015 4.81415
O 17.6332 6.86967 1.92383
H 18.153 6.36077 2.54003
H 16.7454 6.54421 2.14131
O 16.5561 14.9243 2.82152
H 16.7866 14.2879 2.14308
H 16.3421 14.3942 3.60812
O 28.1913 41.7926 7.56986
H 28.3454 41.5086 6.65142
H 27.9166 41.0557 8.04835
O 26.3983 43.8368 9.02659
H 26.8521 0.487149 9.18578
H 26.9123 43.2684 8.40154
O 24.9879 6.36948 7.58141
H 25.2516 7.24945 7.39546
H 24.2514 6.26045 6.92403
O 18.7983 2.15226 8.36119
H 18.235 1.72636 7.72948
H 19.6263 1.60923 8.4527
O 28.3924 40.9809 4.97529
H 27.9258 41.0421 4.10527
H 29.2811 40.6548 4.78574
O 22.6779 7.64819 42.0976
H 22.5617 7.72451 41.0779
H 22.9115 8.52753 42.369
O 23.5754 10.5615 42.377
H 24.5059 10.9048 42.5863
H 22.9537 11.3235 42.4886
O 31.336 7.15593 3.84834
H 30.7868 6.51378 4.39134
H 31.9263 7.62471 4.46107
O 30.0134 3.4892 7.78455
H 30.876 3.07994 7.95564
H 29.3986 3.55396 8.50467
O 29.7443 5.47988 5.66863
H 30.085 5.10392 6.52477
H 29.3947 4.76234 5.21504
O 26.2109 43.3768 1.16986
H 25.937 42.8897 0.383824
H 25.485 -0.0545224 1.27139
O 32.7337 2.56621 7.91491
H 33.1929 1.74784 7.79571
H 33.2 3.21155 7.35509
O 26.0061 4.76345 10.1302
H 25.5733 5.08941 9.34874
H 25.3803 5.06168 10.8176
O 22.9693 6.09623 0.396503
H 22.1996 6.48112 45.2086
H 23.5329 5.70659 44.8723
O 24.0887 5.07871 43.2599
H 24.8761 4.63739 42.9602
H 24.0957 5.85388 42.6709
O 27.3062 41.1313 2.45934
H 26.731 41.8573 2.4074
H 28.0926 41.3531 1.9927
O 23.4521 42.1223 44.1644
H 22.9908 41.2237 44.2193
H 22.6978 42.7413 44.2225
O 28.4832 23.3386 38.4311
H 28.0876 24.1642 38.6157
H 29.1656 23.5989 37.8325
O 30.6138 9.66197 2.54172
H 30.4978 8.76011 2.69257
H 31.5058 9.75144 2.12967
O 27.7238 2.42914 10.1399
H 27.0045 3.072 10.0311
H 28.054 2.6448 10.9848
