192
Atoms. Timestep: 9250
O 3.49867 3.12346 6.9955
H 4.18063 2.94943 7.69224
H 3.63541 3.97233 6.62349
O 5.96948 1.49672 43.0605
H 5.41221 2.21504 42.7985
H 5.60653 0.737307 42.5926
O 6.38683 1.92376 0.560213
H 5.96411 1.35022 1.20111
H 6.19262 1.58956 44.8439
O 4.48016 4.18687 1.70376
H 4.89096 3.35974 1.43404
H 4.00881 4.48262 0.938574
O 5.00021 5.25555 5.67924
H 4.85185 5.55513 4.76673
H 5.40558 6.0292 6.09297
O 3.83997 5.374 40.5499
H 3.41794 6.20254 40.3378
H 4.69805 5.46526 40.1048
O 3.6463 3.11575 41.849
H 3.69368 4.00228 41.5251
H 2.98463 3.18326 42.512
O 5.31517 6.63842 3.2905
H 6.22466 6.87716 3.4271
H 5.29584 5.9728 2.62444
O 7.96689 7.54907 39.8838
H 8.09509 7.41436 40.8387
H 8.31738 8.49884 39.7622
O 5.98211 5.35192 38.7871
H 6.79126 5.83914 38.9536
H 6.03946 4.87733 37.9337
O 41.8483 6.61633 19.4883
H 42.4124 6.09215 18.9735
H 41.1357 5.97816 19.7359
O 3.44521 1.31354 5.03872
H 3.58999 1.97761 5.74277
H 2.47028 1.18961 4.96278
O 5.50531 0.408488 3.03052
H 6.13479 43.8858 3.32028
H 4.91001 0.399518 3.79029
O 17.7001 41.5917 43.0947
H 17.2453 41.3403 42.27
H 17.7244 42.5781 43.0839
O 7.93539 7.16998 4.15976
H 8.32014 8.03327 4.26435
H 8.63154 6.59663 3.89104
O 5.56041 0.981319 23.7554
H 6.2776 0.723591 24.2201
H 5.32416 1.73499 24.214
O 11.6988 42.7063 1.25951
H 12.2169 41.9318 0.917204
H 11.2047 42.3677 2.01433
O 10.3894 1.20391 42.7612
H 10.8916 1.22289 41.9505
H 9.5364 0.939121 42.4246
O 13.6316 5.90815 4.66598
H 13.2509 5.28688 5.25571
H 13.6568 5.30089 3.88805
O 14.373 3.46605 3.06868
H 13.8773 2.95194 3.66487
H 14.2655 3.01147 2.14681
O 12.5411 4.13145 8.04316
H 12.0353 3.86471 8.83316
H 13.4878 3.93367 8.18642
O 9.16304 2.25611 1.80618
H 9.83383 1.86813 1.22075
H 8.35017 2.12752 1.39291
O 16.0814 40.868 0.184116
H 16.5948 41.0924 44.5801
H 16.6041 40.2114 0.677037
O 17.335 3.04566 3.98589
H 16.4251 3.219 3.74814
H 17.6608 3.94499 3.97161
O 9.20419 3.53568 4.21178
H 8.54034 2.94632 4.47639
H 9.3394 3.25325 3.29655
O 13.5756 2.33701 0.768509
H 13.847 2.30541 -0.156721
H 12.7463 1.79377 0.821314
O 11.0975 1.00637 0.247136
H 10.9682 0.949103 44.4714
H 11.1008 0.0378001 0.601764
O 13.2726 40.851 0.31199
H 13.1767 39.9203 0.12545
H 14.191 41.0368 0.458761
O 18.0096 0.505098 43.4826
H 17.9985 0.542603 44.4479
H 18.903 0.729936 43.2496
O 16.9154 1.75272 6.4406
H 16.3439 1.0317 6.16274
H 17.2226 2.18842 5.6466
O 11.7743 3.60112 5.2258
H 11.8353 3.46849 6.16255
H 10.8344 3.69492 4.98544
O 15.4062 3.56479 8.83724
H 15.9192 3.23567 8.06095
H 15.8576 3.19947 9.58936
O 17.7123 0.758776 1.58103
H 17.2198 1.49265 1.92152
H 18.6196 0.837389 2.02252
O 12.7715 11.5992 4.19148
H 12.9865 10.6549 4.23093
H 12.0202 11.7035 3.69952
O 18.6724 7.69102 2.60166
H 19.1281 7.35853 1.82393
H 17.8515 7.20285 2.70725
O 20.2568 8.04578 4.96941
H 20.7135 8.89933 4.77095
H 19.8012 7.87173 4.10374
O 21.6744 0.127433 9.38585
H 22.1711 43.4252 9.41897
H 22.4112 0.689114 9.6267
O 18.3872 6.85259 6.69268
H 18.8683 6.12426 7.16987
H 19.0178 7.41114 6.20632
O 13.8361 13.4421 5.90005
H 13.3559 12.7839 5.41676
H 13.4156 13.6075 6.74188
O 24.3693 0.810762 9.72571
H 25.0827 0.275967 9.34005
H 24.83 1.57112 10.0467
O 20.3654 4.81586 7.84192
H 20.4215 4.08354 7.20341
H 19.9063 4.29738 8.54477
O 16.8953 6.09602 4.43701
H 15.961 5.87551 4.57842
H 17.2156 6.34287 5.29853
O 13.0586 8.59097 4.6957
H 13.3249 8.6259 5.6196
H 13.1087 7.65108 4.49431
O 15.9223 15.2656 4.37173
H 15.0434 15.0334 4.67742
H 16.309 14.8505 5.16917
O 28.6425 42.5434 7.71191
H 29.4831 42.3823 8.12094
H 28.5259 41.7055 7.24314
O 26.9719 0.593427 8.41519
H 27.299 1.53707 8.25827
H 27.7574 0.0402543 8.18362
O 22.7618 6.15774 6.39775
H 22.3951 5.81673 7.20348
H 22.0255 6.5985 5.9801
O 19.4739 2.23588 8.88455
H 18.9546 1.55208 8.44692
H 20.2317 1.77937 9.3197
O 28.2956 40.062 6.57936
H 28.1225 39.9736 5.60341
H 29.1404 39.5687 6.72323
O 22.4356 8.34466 40.9357
H 22.998 8.64132 40.207
H 21.5367 8.18205 40.5606
O 19.8131 8.04871 39.6252
H 19.0334 7.67179 40.0547
H 19.5728 8.95541 39.2863
O 33.7266 4.35168 3.69829
H 33.0709 4.65026 4.35536
H 33.2749 3.8213 3.05916
O 30.1257 4.55354 7.61297
H 30.485 3.75797 8.04673
H 29.2053 4.49366 7.39833
O 31.8344 5.00858 5.66049
H 31.0848 4.89911 6.22941
H 32.2276 5.8557 5.96507
O 27.1294 41.4094 1.87107
H 26.5066 42.1924 1.94436
H 27.7408 41.6736 1.18241
O 32.4342 2.755 8.71191
H 33.0913 3.06735 8.1162
H 32.5456 1.79963 8.62678
O 25.5888 6.21634 6.46938
H 24.7497 5.92485 6.11335
H 25.2958 6.78085 7.17947
O 20.5708 7.75373 0.311899
H 20.7431 8.68867 0.176712
H 21.2161 7.32004 -0.268096
O 22.4661 9.15634 43.802
H 23.2429 9.56452 44.0366
H 22.5072 9.06322 42.8974
O 26.7082 39.6928 4.22727
H 26.9704 40.1663 3.46145
H 25.8177 39.4833 4.12542
O 28.8674 43.6358 0.14866
H 29.5753 43.6468 0.756053
H 29.3697 43.232 -0.593007
O 22.3715 15.7476 4.42826
H 23.222 15.7288 3.95992
H 22.4987 15.0577 5.09075
O 36.7526 4.14774 3.50873
H 35.8337 3.87784 3.64181
H 37.1715 3.50625 3.97583
O 27.1727 4.40318 7.68727
H 26.6436 4.81883 6.95422
H 26.9389 4.89491 8.51109
