192
Atoms. Timestep: 5900
O 47.6849 2.18848 6.5513
H 47.0849 2.38648 7.20533
H 0.912651 3.09521 6.24442
O 4.43092 2.46233 43.9506
H 4.04408 3.23185 43.6047
H 4.79382 2.15381 43.0997
O 5.50853 2.14501 1.54308
H 4.91766 1.59021 2.04293
H 5.3185 1.95632 0.594739
O 4.70393 4.73164 1.75991
H 5.36736 4.87617 2.43628
H 4.95482 3.78265 1.51848
O 0.875316 4.73841 5.40138
H 1.3074 5.16914 4.67403
H 0.626125 5.49753 5.98692
O 4.89129 6.71519 44.8643
H 4.9861 6.04405 0.413286
H 5.8262 7.10062 44.7527
O 3.76625 4.94403 42.7781
H 3.71249 5.66502 43.4411
H 3.21514 5.22849 42.027
O 1.97491 5.72622 3.06518
H 2.50634 5.14331 2.48812
H 2.06014 6.60153 2.65675
O 3.92826 9.40432 44.5519
H 3.99915 8.45526 44.7659
H 3.34587 9.74746 45.2017
O 6.6661 8.75801 43.713
H 7.36712 9.33285 43.4548
H 6.23253 9.24093 44.4245
O 15.0338 34.2072 29.0585
H 14.6856 35.0335 29.3225
H 15.7545 34.5165 28.4598
O 1.70414 44.7358 4.42065
H 0.991962 45.1984 4.0324
H 1.58117 0.921439 5.32951
O 3.97952 0.682512 3.12485
H 4.59023 0.28716 3.68968
H 3.05673 0.570275 3.4741
O 15.4716 43.1346 6.74221
H 15.8266 42.6762 7.52901
H 15.9741 43.9373 6.5841
O 6.81492 5.59134 3.44401
H 6.55654 6.16265 4.15478
H 7.15299 4.82715 3.94179
O 45.9549 15.9442 44.1421
H 45.7456 16.8978 44.5071
H 46.9451 15.9742 44.161
O 13.634 0.174734 0.519284
H 13.305 43.4419 0.949084
H 14.4745 -0.0952077 45.3395
O 10.438 2.19542 42.4844
H 11.0099 2.04004 41.7289
H 9.78525 2.81577 42.1109
O 15.6806 5.07603 4.10128
H 15.4776 5.8953 4.59693
H 14.9873 4.45107 4.25929
O 13.5003 3.45358 4.65612
H 12.8326 4.15053 4.72163
H 13.3024 3.00512 3.8484
O 8.6426 0.845326 5.38903
H 9.00623 44.4759 4.65947
H 9.193 0.542642 6.14309
O 8.75456 1.91776 1.78088
H 9.3208 1.8392 0.995541
H 7.83295 1.96261 1.48654
O 15.2639 41.1026 3.97675
H 15.1485 41.6741 4.76713
H 15.5096 40.2555 4.31613
O 14.047 2.4843 7.33775
H 13.7371 2.63227 6.43748
H 13.6691 3.19552 7.85719
O 8.32025 3.34418 4.25144
H 8.29766 2.55977 4.806
H 8.58991 3.0167 3.37175
O 13.1018 2.51906 1.92081
H 13.6535 1.74525 1.65712
H 12.3669 2.57634 1.18718
O 11.263 1.88028 0.00849077
H 11.0707 2.13795 44.3023
H 11.7028 1.01229 -0.198379
O 14.0194 41.7677 1.40661
H 13.4731 41.0046 1.2989
H 14.5482 41.5915 2.13064
O 16.9701 1.49316 6.53591
H 17.2688 1.8408 5.69243
H 16.2056 2.00664 6.78266
O 12.4629 -0.532483 7.99816
H 13.0523 42.8901 7.80758
H 13.0564 0.250391 7.92832
O 11.0905 4.97263 4.95632
H 10.6335 5.42336 5.69357
H 10.3597 4.43015 4.59338
O 9.89249 43.6117 7.22454
H 10.8781 43.4988 7.28437
H 9.65391 43.5484 8.15002
O 18.2225 1.92294 4.08859
H 18.6132 2.7811 3.86968
H 18.8839 1.27111 3.88423
O 17.9342 8.54697 44.6404
H 17.647 8.30845 43.8056
H 17.7354 7.80362 45.2312
O 24.3879 6.54555 3.37392
H 24.253 6.1385 2.53958
H 24.1459 7.46186 3.29031
O 23.4704 5.3803 5.77129
H 23.9276 5.82878 5.0893
H 23.757 4.43077 5.72291
O 21.0601 0.971312 9.09531
H 20.8424 0.536968 9.91593
H 21.8972 0.507818 8.7549
O 20.6721 5.98892 5.61819
H 20.3188 5.69623 6.45018
H 21.6232 5.80434 5.60254
O 16.78 11.3261 45.6897
H 15.8422 11.2978 45.577
H 17.0404 10.3882 45.7069
O 22.9302 43.7011 7.82885
H 23.8875 43.8293 8.08737
H 22.8025 42.7571 7.82633
O 19.8148 4.88181 8.23202
H 19.4209 3.96373 8.29127
H 19.6744 5.23289 9.09758
O 18.7337 4.59809 3.84357
H 17.8184 4.82792 4.05887
H 19.3633 4.98584 4.46358
O 17.1816 6.63677 1.68895
H 17.8123 5.94493 1.97609
H 16.3463 6.28449 1.93981
O 18.0079 13.6541 1.80884
H 17.3807 12.929 1.58049
H 18.616 13.7253 1.05622
O 27.9848 42.8024 7.55546
H 28.2405 43.0825 6.65446
H 27.8339 41.8682 7.4435
O 25.6559 -0.157026 8.61505
H 26.191 0.57814 8.95168
H 26.3643 43.4114 8.21218
O 24.2106 5.28181 9.04447
H 23.433 5.51977 9.56178
H 23.9248 5.37556 8.15987
O 18.9921 2.31988 8.54581
H 18.3628 1.99358 7.86654
H 19.8116 1.66387 8.59866
O 28.5943 42.5062 4.84852
H 27.8343 42.4386 4.19567
H 29.16 -1.11412 4.29102
O 23.5516 8.01182 42.3558
H 22.6252 7.87186 42.0952
H 23.6078 8.95954 42.4093
O 24.4891 10.631 42.6127
H 25.3322 10.8154 43.1053
H 24.1009 11.5068 42.5333
O 30.0521 7.88374 5.10919
H 30.9958 7.67913 5.19275
H 29.7311 6.98613 5.19874
O 30.0572 3.33697 7.60231
H 30.8858 2.8773 7.55242
H 29.3871 2.8537 8.16959
O 29.748 4.88656 5.36799
H 29.8387 4.43052 6.19901
H 28.984 4.45207 4.9002
O 25.2765 43.3355 0.676923
H 25.0338 42.4319 0.335019
H 25.4182 43.8854 -0.0423043
O 32.6949 2.01642 7.81523
H 33.3539 2.1105 7.08849
H 33.2496 1.61224 8.48928
O 26.5208 4.48055 10.2546
H 25.7558 4.72205 9.74635
H 26.4847 4.89927 11.1172
O 24.2065 6.34359 0.553593
H 23.982 6.97799 -0.139285
H 24.2845 5.57633 -0.000321822
O 24.3777 5.44751 43.2208
H 24.1889 4.71158 42.6145
H 24.256 6.24647 42.7001
O 26.4343 42.3459 2.95226
H 25.5249 42.3874 3.2708
H 26.4191 42.7414 2.12971
O 24.1434 40.5868 44.5536
H 23.4825 41.0577 43.9368
H 24.3699 39.8096 44.0279
O 30.1095 25.3601 35.5129
H 29.5749 24.6775 35.8595
H 29.5817 26.1172 35.7051
O 28.8637 9.59064 2.9908
H 29.2741 9.03462 3.61621
H 28.8909 8.99906 2.21935
O 28.062 2.31655 9.21859
H 27.5514 3.07037 9.62076
H 28.3719 1.75431 9.85828
