192
Atoms. Timestep: 6550
O 2.05924 3.2642 6.6364
H 2.44381 3.28537 7.54102
H 1.80203 4.14852 6.44783
O 4.9555 1.63856 43.4009
H 4.21203 2.25316 43.2034
H 4.55402 0.794282 43.4384
O 5.45633 2.11759 1.02967
H 4.94017 1.41913 1.51426
H 5.31621 2.05578 0.0267636
O 5.23902 4.55231 1.97532
H 6.24555 4.78397 1.98141
H 5.31394 3.57332 1.79407
O 1.65919 6.03999 5.82764
H 1.75307 6.0066 4.85234
H 2.54105 6.36429 5.99251
O 3.7062 5.58648 44.6329
H 3.8651 5.19199 0.315318
H 4.41829 6.25889 44.5006
O 3.28906 3.6189 42.9024
H 3.37294 4.4385 43.3793
H 2.42463 3.72028 42.5415
O 2.64517 5.69632 3.26993
H 3.51825 5.50444 2.96704
H 2.29777 6.13212 2.51778
O 5.86573 11.0404 43.6041
H 6.16727 11.1756 42.7171
H 5.30759 11.7724 43.8033
O 5.49939 8.02727 44.4745
H 6.42756 8.02364 44.5086
H 5.27999 8.9307 44.233
O 11.3011 37.4277 27.2115
H 11.4913 36.55 26.8589
H 10.5189 37.2544 27.7379
O 2.28042 0.966938 5.13166
H 1.33802 0.761924 5.19745
H 2.44884 1.82825 5.53534
O 3.50986 0.562054 2.50508
H 3.24876 43.7636 2.69185
H 3.00943 0.969508 3.20894
O 16.9055 42.2498 6.03256
H 16.6037 42.1367 6.92969
H 16.9194 43.2168 5.97755
O 7.92777 5.45622 2.50619
H 8.07567 6.32077 2.91664
H 8.39117 4.77566 2.99513
O 0.287478 12.4455 3.32594
H 46.1833 12.2883 3.40236
H 0.588806 11.544 3.40595
O 13.0213 42.8672 0.106566
H 13.3059 42.2276 0.724205
H 13.3016 42.6437 44.4033
O 10.395 1.23524 42.7341
H 11.0173 0.910727 42.0757
H 9.5045 0.898633 42.5515
O 15.6649 6.53196 4.34397
H 15.4167 7.39908 4.75222
H 14.8663 6.23138 3.88538
O 13.6231 4.54059 3.77082
H 12.7299 4.67789 4.07435
H 13.5779 4.01292 2.97999
O 7.2905 2.19731 6.16214
H 6.34547 2.18428 6.33984
H 7.66496 1.33371 6.29723
O 8.39084 1.61447 2.12793
H 9.18716 1.24123 1.70493
H 7.68231 1.59785 1.5008
O 16.817 40.6245 3.40436
H 16.8901 40.8226 4.28947
H 17.7098 40.467 3.14241
O 14.3397 2.23519 5.6167
H 14.1935 2.90274 4.96038
H 14.2422 2.70503 6.45331
O 8.78754 3.19789 4.12522
H 8.16314 3.0267 4.83318
H 8.59779 2.72338 3.30796
O 13.1657 2.76417 1.67195
H 13.8277 2.38116 1.09556
H 12.3859 2.40944 1.28824
O 11.1898 1.08212 0.206919
H 11.099 1.32071 44.4328
H 11.7589 0.325164 0.119216
O 14.2816 41.0936 1.99377
H 14.0286 40.1838 2.17469
H 15.2114 41.2008 2.29504
O 17.1856 1.09166 6.07402
H 17.6355 1.46888 5.2839
H 16.2564 1.30998 6.03911
O 12.1159 43.8732 5.26644
H 12.6672 43.0631 5.23613
H 12.7555 0.455805 5.32958
O 11.0407 4.50196 4.69519
H 11.0873 4.49822 5.62399
H 10.3394 3.8908 4.41793
O 8.83501 43.8319 5.94618
H 9.67309 0.0396406 5.57176
H 9.19964 43.2575 6.60954
O 18.2267 2.46965 4.13453
H 18.238 3.46344 4.26615
H 18.7255 2.23853 3.3507
O 18.2747 9.34631 0.99145
H 19.1592 9.40058 1.38282
H 18.1554 8.3979 1.18744
O 24.2864 6.99921 2.58055
H 23.8129 6.79163 1.72006
H 25.163 6.61164 2.50019
O 23.329 6.70684 5.08976
H 23.1397 7.65297 5.20507
H 23.7303 6.70178 4.23741
O 20.9786 0.260867 8.97936
H 20.6038 43.8055 9.62743
H 21.9166 0.223561 9.14036
O 20.0459 6.29271 6.17824
H 19.8769 6.12929 7.10376
H 20.9762 6.1936 6.02234
O 16.1856 11.968 1.36877
H 15.4993 11.7014 0.793256
H 16.8811 11.2948 1.28341
O 23.6458 43.8937 9.72784
H 24.4834 43.7291 9.25376
H 23.9057 0.393281 10.3955
O 19.2109 4.95552 8.5821
H 19.2179 3.92621 8.53735
H 18.8442 5.21982 9.44454
O 18.2469 5.3656 4.34226
H 17.3184 5.59619 4.58207
H 18.8653 5.66565 5.09296
O 17.7453 6.72828 1.82015
H 18.1838 6.31862 2.57194
H 16.8949 6.99401 2.18448
O 16.6995 14.8166 2.75465
H 16.8801 14.1229 2.11506
H 16.0088 14.2513 3.15267
O 28.2375 41.9939 7.63997
H 28.1223 41.8316 6.69779
H 28.1297 41.1358 7.96832
O 26.5018 43.6958 8.97552
H 27.0236 0.268735 9.22
H 27.0407 43.075 8.43678
O 24.8505 6.28129 7.70564
H 25.2529 7.11802 7.64606
H 24.4521 6.10105 6.83012
O 18.8846 2.26225 8.30472
H 18.3415 1.92723 7.55526
H 19.6117 1.59717 8.42808
O 28.3612 41.0319 4.99403
H 27.7856 41.1794 4.24316
H 29.2185 40.9254 4.56084
O 22.8111 7.69773 42.1345
H 22.295 7.55972 41.2739
H 23.2113 8.52175 42.0102
O 23.6372 10.5342 42.4609
H 24.3622 11.2468 42.4061
H 22.8843 11.1836 42.4026
O 31.2476 7.1698 3.89712
H 30.6811 6.64085 4.50016
H 31.7596 7.66984 4.55175
O 29.9911 3.62143 7.80108
H 30.7271 3.01425 7.77342
H 29.3893 3.12704 8.33771
O 29.7663 5.43983 5.65597
H 29.826 4.92597 6.49099
H 29.4291 4.75637 5.13778
O 26.1064 43.415 1.07704
H 25.672 43.2843 0.269517
H 25.8604 0.249939 1.25828
O 32.8006 2.51022 7.88226
H 33.1925 1.67537 7.70324
H 33.3344 3.17388 7.4193
O 26.1552 4.71758 10.2005
H 25.9868 5.13199 9.40296
H 25.3515 4.70191 10.7313
O 23.099 6.0796 0.410853
H 22.481 6.56976 45.0795
H 23.5822 5.61806 44.871
O 24.0378 5.09135 43.2332
H 24.9101 4.85616 42.9497
H 23.7592 5.77493 42.5959
O 27.2945 41.1966 2.48393
H 26.4844 41.492 2.27173
H 27.8533 41.6745 1.90995
O 23.4903 41.9576 44.2676
H 22.7854 41.3768 43.8363
H 23.3438 42.7636 43.7107
O 28.5534 23.5086 38.2128
H 28.719 24.405 38.1402
H 29.4187 23.1917 38.0816
O 30.4791 9.70641 2.52874
H 30.6448 8.95812 3.02385
H 31.2581 9.94677 1.98294
O 27.7095 2.3178 10.217
H 27.2074 3.15911 10.3683
H 28.2145 2.22137 10.9738
