192
Atoms. Timestep: 900
O 0.548887 0.0841789 1.27156
H 46.6595 0.547604 1.61135
H 1.12397 0.0169566 2.04045
O 6.1223 3.9074 45.2828
H 6.12762 4.24481 44.4054
H 5.49194 3.16699 0.0366827
O 6.49467 4.98651 2.83259
H 7.46174 4.69157 2.95272
H 6.27117 4.78966 1.8704
O 4.46337 4.96555 5.16282
H 5.19585 5.09712 5.79692
H 4.84592 5.14372 4.2809
O 2.16605 44.0189 3.72035
H 2.73835 0.61308 3.91383
H 2.40806 43.3231 4.36498
O 1.32129 6.18474 6.61674
H 2.25062 5.94169 6.43847
H 0.901112 5.96603 5.75263
O 4.64095 1.41111 0.110406
H 3.72099 1.31608 45.0599
H 5.15861 0.842762 44.7049
O 4.0965 2.17059 5.10377
H 4.11563 3.2116 5.1377
H 4.31271 1.92784 6.03414
O 0.41942 8.82297 7.65854
H 0.66617 7.99986 7.16768
H 0.386486 8.61236 8.59874
O 0.0653292 5.67372 4.21597
H 46.243 6.16939 3.90518
H 0.65714 5.59505 3.45325
O 44.9912 9.78283 43.3482
H 44.2632 9.41602 43.844
H 45.0014 10.6476 43.7295
O 2.14669 0.733121 44.3845
H 1.70305 1.33064 43.7565
H 1.56434 0.593591 45.1797
O 6.08928 1.42327 2.98293
H 5.67635 1.39737 2.0795
H 5.4237 1.82549 3.50493
O 9.66607 42.9883 12.3839
H 9.36572 43.1124 13.2883
H 10.6022 42.8109 12.5666
O 6.24042 5.55088 7.3105
H 7.03689 5.07825 7.52045
H 5.74567 5.46284 8.13017
O 45.964 42.2248 12.331
H 45.4253 42.5777 11.6532
H 46.6272 42.791 12.3116
O 8.71915 1.53166 3.5085
H 7.82072 1.43119 3.26876
H 9.11468 1.03992 2.76768
O 12.6848 5.60912 44.7308
H 12.8011 5.5239 43.7885
H 13.3592 6.2379 -0.174673
O 14.4435 7.37665 5.01232
H 14.472 8.31271 4.83309
H 13.6347 7.22845 5.5253
O 11.9104 7.56938 6.24769
H 11.6593 7.61127 7.13873
H 11.1806 7.06408 5.81654
O 9.74889 1.37647 6.08026
H 9.25963 1.3751 5.27523
H 9.253 0.892009 6.71006
O 9.92724 5.41521 5.65902
H 10.1888 4.58 5.28233
H 9.3488 5.8478 5.03412
O 13.2294 -0.0647853 1.2621
H 13.6949 0.417536 0.57571
H 13.6773 0.314746 2.05882
O 12.3585 0.607889 5.82518
H 11.4046 0.794186 5.78819
H 12.6646 1.29016 6.4181
O 9.04658 4.55149 8.22444
H 9.35413 3.74569 8.61261
H 9.34202 4.6049 7.31013
O 9.22162 4.28464 3.13443
H 9.00108 3.28774 3.28978
H 9.79872 4.57504 2.31589
O 10.3608 5.2833 0.949005
H 9.81362 5.68746 0.312212
H 11.2401 5.35085 0.543678
O 10.2613 0.29889 1.14803
H 10.0391 43.9091 0.387232
H 11.1857 0.143432 1.25178
O 14.1482 0.794924 3.71376
H 15.0637 0.985609 3.95333
H 13.5823 0.604084 4.49169
O 12.0957 43.2358 8.98551
H 12.8611 42.7525 9.31559
H 12.3057 43.3156 8.03917
O 10.5898 7.36425 8.6621
H 9.99422 8.06349 8.85418
H 10.0379 6.57767 8.64316
O 8.70829 0.298733 8.78162
H 9.42575 43.9413 9.22275
H 7.95537 44.2804 9.36684
O 16.8544 1.64662 4.06121
H 16.8573 2.50779 4.47367
H 17.5781 1.18496 4.5176
O 19.8093 3.73874 0.737796
H 20.4901 3.9569 1.37496
H 19.0284 4.22883 1.00443
O 22.3731 4.84209 2.74378
H 23.2762 4.5176 2.77141
H 22.3295 5.78574 2.48471
O 21.3868 4.2889 5.18935
H 21.7636 4.38412 4.24847
H 21.3215 3.34489 5.32554
O 18.8658 0.614423 5.94052
H 19.7414 0.816343 5.50158
H 18.829 -0.341069 5.8877
O 18.8252 5.06685 5.79028
H 18.7453 4.99014 6.73646
H 19.7065 4.81559 5.62211
O 20.3785 1.75057 43.8895
H 20.0719 2.46069 43.3697
H 20.2349 2.05174 44.766
O 21.5155 1.48876 5.3234
H 22.0339 1.29179 6.10909
H 22.0575 1.26007 4.5723
O 18.4646 4.68873 8.59524
H 18.7386 3.75517 8.72479
H 17.5327 4.66674 8.87813
O 17.0454 6.17336 4.09135
H 16.1362 6.29607 4.4295
H 17.7266 5.82284 4.76947
O 17.7688 5.99258 1.57333
H 18.1938 6.83677 1.5118
H 17.3585 5.9387 2.40054
O 20.2152 43.1099 42.5104
H 20.3409 43.9409 42.9973
H 20.0478 43.318 41.5837
O 23.1442 0.761113 3.3498
H 24.0405 1.0079 3.25117
H 22.9914 0.207103 2.58818
O 22.3507 1.00257 8.17532
H 23.2021 1.30916 8.36456
H 22.3847 0.0519981 8.45658
O 22.4342 5.60452 7.29594
H 21.6291 5.7858 7.79333
H 22.0645 5.1977 6.51769
O 19.4357 1.93785 8.75018
H 20.3289 1.73591 8.79171
H 19.1089 1.41073 7.99217
O 25.7922 1.80327 3.26401
H 26.3412 1.26536 2.65978
H 26.0708 1.61531 4.13171
O 29.2942 5.78877 44.8649
H 29.7236 6.19952 44.0633
H 29.6079 4.89521 44.9354
O 30.06 7.00691 2.22144
H 29.9661 6.4767 1.46845
H 29.1448 7.24578 2.38631
O 29.8849 6.42787 6.91551
H 30.3622 6.12583 6.15784
H 28.9468 6.35224 6.66722
O 26.6072 1.33488 5.73074
H 27.5092 1.27703 5.97457
H 26.0592 1.56633 6.59902
O 26.775 6.20052 6.23447
H 26.8109 5.71744 5.3431
H 26.2597 6.97346 6.15748
O 29.6861 43.2379 45.0797
H 30.4532 42.792 0.223545
H 29.9823 43.3521 44.1591
O 29.4813 1.59704 6.51502
H 29.8857 2.41973 6.16481
H 30.1999 0.993015 6.68536
O 24.6181 4.54112 8.69136
H 23.8135 4.79296 8.16191
H 25.2448 5.19208 8.38071
O 25.125 4.27252 2.69371
H 25.5108 3.3542 2.80508
H 25.5932 4.68938 2.00028
O 26.2798 6.06401 0.651743
H 25.904 6.91027 0.477316
H 27.202 6.12866 0.36301
O 27.5503 0.826842 1.25225
H 28.1993 0.115079 1.05257
H 28.1418 1.55418 1.24267
O 32.6629 41.9806 0.0358142
H 33.1951 41.9509 0.820687
H 32.955 41.1641 44.7762
O 32.0855 42.0733 12.1071
H 32.2744 41.5655 11.353
H 31.1813 42.0338 12.087
O 31.5567 6.72495 9.65321
H 31.175 6.39614 8.86541
H 30.7955 7.30799 9.9571
O 25.0592 2.04 8.30973
H 25.0171 3.08436 8.34852
H 25.5825 1.80412 9.08982
