192
Atoms. Timestep: 1950
O 1.20626 44.2153 0.328033
H 0.431043 43.6197 0.0513768
H 0.793471 0.653571 0.998045
O 4.52386 5.28894 0.464171
H 4.38699 6.17797 45.2716
H 4.60338 4.66013 -0.252318
O 5.42492 4.62903 2.90901
H 5.93456 3.83232 2.71103
H 5.0947 4.88142 1.96505
O 2.78607 4.9499 4.47556
H 3.35537 4.8503 5.33585
H 3.42464 4.95243 3.72131
O -0.0185749 1.23167 2.48854
H 0.403157 1.86255 3.03896
H 46.0293 1.59866 2.24666
O 1.04692 7.44084 4.20547
H 1.53626 6.62968 4.39951
H 0.309553 7.41818 4.80848
O 5.51565 2.75505 44.8612
H 4.9522 1.99327 44.5703
H 6.18678 2.84664 44.2409
O 1.47198 2.43703 4.79828
H 1.79917 3.37646 4.71912
H 2.09366 1.88448 5.18617
O 3.16399 9.42442 3.90598
H 2.45787 8.78485 4.09918
H 2.89868 10.2883 4.17454
O 46.0602 6.47969 6.24218
H 46.4273 5.81533 6.8206
H 45.4533 7.00109 6.75421
O 38.6563 14.8847 40.3982
H 38.0766 15.61 40.4016
H 39.5037 15.2997 40.0957
O 3.97737 0.245739 44.5777
H 4.16988 -0.422769 43.936
H 3.03518 0.196268 44.8675
O 6.40152 1.87943 2.37216
H 6.20904 2.12786 1.50163
H 5.64803 1.51712 2.84841
O 14.1814 42.6204 10.4806
H 13.7924 42.7153 11.3576
H 15.1211 42.6615 10.6545
O 4.79607 3.81654 6.53432
H 5.62776 4.33203 6.6452
H 4.46656 3.59239 7.41486
O 42.8673 37.4658 18.2177
H 42.3851 37.2818 18.9947
H 42.1395 37.7964 17.6055
O 9.18412 1.42774 3.51567
H 8.40007 1.16303 2.96783
H 9.91234 0.849359 3.35695
O 10.6815 6.76722 43.6695
H 10.2889 6.92018 42.8364
H 10.3513 7.48799 44.1677
O 14.3364 6.858 5.19895
H 14.5485 7.81881 5.11109
H 13.3345 6.89647 5.42392
O 11.4875 7.20922 6.13878
H 10.9563 6.75505 6.85211
H 10.8318 7.45689 5.41001
O 8.54614 1.79538 6.39691
H 8.71768 1.52137 5.4926
H 8.68732 1.02296 6.94526
O 7.88696 5.45901 4.28844
H 8.4865 5.03189 3.62295
H 7.01791 5.33576 3.82946
O 13.3004 43.3045 5.48253
H 13.6245 42.5256 5.92872
H 13.5583 44.0371 6.05733
O 11.0152 2.62137 8.28163
H 10.419 2.37966 7.54946
H 10.671 3.46246 8.5839
O 7.67009 4.66776 6.94772
H 7.70188 3.67073 6.92934
H 7.63166 4.95521 5.96514
O 9.15276 3.9671 2.17311
H 9.42921 3.13687 2.61779
H 9.70225 4.13073 1.4354
O 10.3792 3.98661 -0.199492
H 11.2359 3.57881 -0.438742
H 10.5633 4.81825 -0.667056
O 11.0044 43.5395 3.86879
H 11.1479 42.8305 3.23868
H 11.677 43.3689 4.54391
O 14.227 1.02702 7.46637
H 15.1354 1.12117 7.29153
H 13.8248 1.89397 7.46772
O 11.5071 43.8258 9.54549
H 12.4157 43.5987 9.47818
H 11.4723 44.7687 9.36567
O 9.87266 5.98197 7.84998
H 9.28492 6.56749 8.33088
H 9.22871 5.36276 7.43418
O 8.99145 43.7507 8.04457
H 9.84564 43.5269 8.48232
H 8.347 43.6872 8.7373
O 17.008 1.30743 6.31581
H 17.5626 2.07931 6.22094
H 17.6535 0.629481 6.40396
O 19.7557 4.88045 0.626415
H 20.5886 4.63567 1.08304
H 19.0405 4.82078 1.24281
O 22.5761 4.90032 1.91855
H 23.2256 4.39448 1.37277
H 22.7795 5.84074 1.926
O 21.5531 3.85981 4.43001
H 21.8226 4.04304 3.49986
H 21.9219 2.99731 4.71193
O 20.3233 -0.308617 6.00433
H 20.9097 0.223819 5.44753
H 20.4314 42.8917 5.7271
O 18.7227 3.88902 6.00995
H 19.0848 3.74344 6.9082
H 19.5162 3.85654 5.42213
O 19.2336 3.60771 43.3593
H 18.5488 4.15209 42.9917
H 19.4484 3.99317 44.223
O 22.5962 1.26672 5.07022
H 23.1792 1.08798 5.75808
H 23.0834 1.02168 4.28966
O 19.9448 3.47442 8.69427
H 20.3742 2.62736 8.84266
H 19.7132 3.78764 9.56972
O 16.8584 5.35769 4.69276
H 16.0105 5.70808 5.06217
H 17.3912 4.87167 5.35671
O 17.3276 4.39261 2.27555
H 16.447 4.29088 1.92
H 17.1839 4.69613 3.18212
O 21.6756 3.47782 41.8927
H 20.7888 3.57552 42.2656
H 21.7386 2.82478 41.2257
O 24.6521 0.228266 3.43068
H 25.5802 0.488874 3.19706
H 24.8887 43.6865 4.07977
O 24.4545 0.70819 7.09515
H 24.9192 1.41866 7.42526
H 24.9158 43.9864 7.37611
O 22.5008 5.56426 6.56674
H 21.9831 5.28005 7.28554
H 22.2255 4.98666 5.78687
O 20.7675 0.83191 8.7273
H 21.7148 0.573573 8.92286
H 20.6239 0.494847 7.83166
O 27.2498 0.895938 3.20065
H 27.8899 0.398039 2.78195
H 27.7768 1.4748 3.7786
O 28.3043 7.78382 45.2353
H 28.7192 8.14633 44.418
H 28.6815 8.41608 45.9036
O 30.641 9.47538 1.40974
H 30.8589 9.88289 2.21412
H 31.48 9.39338 0.955427
O 28.8079 7.8689 8.40368
H 27.9426 8.08185 8.77317
H 28.634 7.42778 7.572
O 28.4908 2.85381 5.803
H 29.2033 2.37577 6.28663
H 27.7498 2.64209 6.3475
O 28.1868 5.75678 5.99246
H 28.5501 4.82071 5.92469
H 28.3169 6.25197 5.19033
O 30.5885 41.5473 0.768835
H 30.1832 40.6992 45.9474
H 30.9986 41.7137 -0.08719
O 30.3546 1.35005 7.80894
H 30.288 1.47886 8.75641
H 30.6918 0.470371 7.75313
O 25.1644 4.90176 6.80423
H 24.2097 5.13428 6.72106
H 25.7837 5.52147 6.42101
O 24.7889 3.77668 0.81364
H 25.0518 3.02398 1.25318
H 25.5244 4.23243 0.391397
O 26.7707 5.10218 -0.374153
H 27.4118 4.94905 44.1098
H 27.0366 5.95619 -0.0322443
O 29.493 43.6914 2.32172
H 29.8207 43.8941 1.46795
H 29.6291 42.7509 2.3136
O 30.4136 40.6696 42.9296
H 31.2253 40.5646 42.3918
H 29.7071 40.5869 42.2483
O 34.8571 37.7929 17.734
H 33.9938 37.6098 17.5087
H 34.7622 38.5009 18.3371
O 31.7156 8.06724 9.14692
H 30.7859 8.2558 8.93915
H 31.6429 7.09711 9.37369
O 26.2784 2.63155 7.59404
H 25.8978 3.4302 7.34393
H 26.3924 2.57495 8.58595
