192
Atoms. Timestep: 7300
O 2.67328 3.37989 6.3803
H 1.84445 3.4292 5.98883
H 3.07752 4.25675 6.132
O 4.55016 1.34051 43.9762
H 4.18901 2.12436 43.5164
H 4.83099 0.851306 43.1846
O 5.83943 1.95073 1.21962
H 5.36482 1.51316 1.92552
H 5.38631 1.70759 0.413654
O 5.7206 4.56956 0.565039
H 6.34444 5.13021 1.06559
H 5.82837 3.62881 0.850612
O 3.35057 5.90366 5.32401
H 3.64601 5.81991 4.43696
H 3.60054 6.79384 5.61357
O 3.88327 6.11324 44.0527
H 4.76367 5.72458 44.4021
H 4.1079 6.81316 43.4048
O 3.37777 3.80019 42.8124
H 3.49211 4.69631 43.2406
H 3.11728 4.02629 41.8853
O 4.13451 6.1232 2.58238
H 4.37028 5.37748 1.95016
H 3.62656 6.71069 2.01575
O 6.56075 9.15832 43.4324
H 6.88034 9.32206 42.5311
H 6.97706 9.88987 43.8978
O 3.93499 8.79887 42.8439
H 4.83435 9.23305 42.9768
H 3.21724 9.42881 42.9998
O 6.71593 41.0209 25.0342
H 6.1714 41.7022 25.5023
H 7.31349 41.5873 24.6077
O 3.99745 1.01045 5.70181
H 4.48941 0.699021 6.4623
H 3.65204 1.86164 5.9357
O 4.05152 0.276883 2.99407
H 3.13924 0.252751 2.79834
H 3.88226 0.549913 3.93704
O 18.4529 42.6794 3.78137
H 19.3021 42.2729 4.05401
H 18.2507 43.2992 4.48069
O 7.59687 5.51444 2.51045
H 7.82169 6.22577 3.09394
H 8.06773 4.7432 2.84445
O 1.64689 8.46751 8.51838
H 0.766986 8.36046 8.35017
H 1.60902 8.85863 9.35391
O 11.6497 42.1989 2.32113
H 12.394 41.5859 2.05484
H 10.9222 41.5857 2.31566
O 10.4792 0.795597 42.6461
H 10.4417 1.76528 42.7881
H 11.0855 0.790152 41.9076
O 15.1254 5.79165 3.60102
H 14.6796 6.59307 3.94643
H 14.5161 5.05115 3.81687
O 13.9056 3.41355 3.67012
H 13.0497 3.6321 4.10277
H 13.7668 3.30702 2.68976
O 8.42901 2.99499 6.69079
H 8.1807 3.30626 7.58742
H 8.72287 2.04987 6.72271
O 8.90569 1.64917 1.98016
H 9.65781 1.11821 1.66242
H 8.16037 1.69897 1.33118
O 16.7083 41.3044 2.11508
H 17.1817 41.8339 2.78668
H 17.1573 41.3689 1.25909
O 14.6264 0.77681 5.16623
H 14.6986 1.41542 4.43557
H 14.1339 1.29308 5.8117
O 9.11748 3.81795 3.94641
H 8.66737 3.51698 4.75664
H 9.26731 3.04626 3.31887
O 13.4239 2.61547 0.86464
H 14.0349 2.15994 0.264086
H 12.6895 1.96644 0.800513
O 11.1515 0.366168 0.543979
H 10.8331 0.46394 44.844
H 11.3039 43.5657 0.797138
O 13.9572 40.7144 1.65579
H 13.9555 40.3619 0.746298
H 14.9293 40.641 1.96976
O 17.7789 0.777021 5.56199
H 17.9537 1.61968 5.12613
H 16.8069 0.780605 5.62799
O 11.629 0.147783 4.41363
H 11.4475 -0.414081 3.68682
H 12.6142 0.07248 4.46885
O 11.6977 4.83595 4.65753
H 11.5908 5.3215 5.46991
H 10.8372 4.44578 4.47401
O 9.68483 43.621 6.66466
H 10.3629 43.4468 6.00546
H 10.1314 43.3152 7.48558
O 18.3522 2.98306 3.76775
H 18.2796 3.9873 3.82433
H 18.9891 2.75298 3.0589
O 18.3282 11.0512 1.57815
H 18.3447 10.3318 2.21127
H 19.2363 11.3387 1.56523
O 22.1173 5.64963 3.7727
H 22.0214 5.55589 2.82586
H 22.8317 5.06304 4.02876
O 21.7631 7.82758 5.82262
H 21.433 8.55539 5.26443
H 22.0005 7.19827 5.17414
O 21.7258 43.6167 8.92281
H 21.3959 42.9022 9.509
H 22.5101 -0.184529 9.42196
O 19.2906 6.0237 6.46085
H 19.4548 5.37754 7.14437
H 19.9604 6.66786 6.43168
O 16.1363 13.4389 2.36247
H 16.7162 12.6587 2.45773
H 16.506 13.8431 1.54987
O 23.9637 44.1297 10.6562
H 24.8034 44.2428 10.2504
H 24.1886 0.235449 11.5442
O 20.2454 4.26558 8.37705
H 20.039 3.28387 8.29764
H 20.2979 4.54181 9.31951
O 18.0345 5.84331 4.10943
H 17.0377 5.91658 4.20122
H 18.4511 5.96435 4.96606
O 17.9544 8.27097 2.59194
H 18.0856 7.6143 3.28467
H 17.217 7.91808 2.10447
O 14.9411 15.7936 3.82188
H 15.4289 15.1035 3.38806
H 15.379 16.0477 4.60466
O 26.4037 42.0211 7.47922
H 26.9966 41.649 6.81292
H 25.8855 41.3334 7.85239
O 26.374 44.3915 9.12698
H 26.7502 1.19972 8.98464
H 26.572 43.816 8.39524
O 24.867 7.86733 6.81111
H 24.9853 8.64151 7.38691
H 23.9374 7.89034 6.75652
O 19.5347 1.37341 8.17215
H 19.1323 1.07571 7.30787
H 20.2879 0.815678 8.3306
O 28.4185 40.7081 5.84123
H 28.0891 40.6557 4.91613
H 28.3349 39.7623 6.03872
O 22.1832 7.54571 41.6502
H 21.8532 7.13171 40.8807
H 22.5283 8.37937 41.3939
O 22.6063 10.0891 41.2251
H 23.0279 10.457 42.004
H 23.1791 10.4317 40.5234
O 32.4452 6.28232 3.72957
H 31.7068 6.05435 4.31211
H 33.1995 5.88382 4.16934
O 29.7409 3.51971 6.92733
H 30.3896 3.16952 7.51102
H 28.8761 3.36672 7.40148
O 30.1073 5.78082 5.34006
H 29.9716 5.16344 6.0201
H 29.7155 6.67428 5.58408
O 26.1857 41.6858 0.813626
H 26.5487 41.3594 0.0531422
H 25.4518 42.1858 0.474166
O 32.1438 2.70847 8.98298
H 33.0798 2.91126 9.14976
H 31.7549 2.56947 9.83234
O 25.4746 5.05935 7.67114
H 25.6039 5.97866 7.36233
H 24.6638 5.11181 8.13756
O 22.9519 5.34334 1.03875
H 22.3503 4.94247 0.340794
H 23.5517 5.86015 0.431381
O 23.6777 6.02746 43.3475
H 24.6374 6.2005 43.2133
H 23.254 6.66083 42.7194
O 27.7246 40.6851 3.05603
H 27.0825 40.0465 2.90211
H 27.398 41.434 2.52492
O 24.0126 44.3824 45.0072
H 23.5558 0.148158 -0.982135
H 24.3399 1.1546 44.9233
O 26.8238 21.3682 41.4313
H 27.2429 21.7992 40.6198
H 27.4516 20.6248 41.591
O 32.6839 8.83717 2.56052
H 32.5122 8.04193 3.00544
H 32.6812 8.62593 1.616
O 27.5584 3.17447 8.54596
H 26.8813 3.74992 8.17967
H 27.7733 3.58561 9.40024
