192
Atoms. Timestep: 2550
O 1.73125 1.23018 45.0504
H 1.28639 0.870838 44.3409
H 1.07293 1.36938 0.629169
O 4.80615 4.61579 44.7608
H 4.00513 5.10475 44.5695
H 4.72307 3.88608 44.1646
O 5.13436 3.66199 2.91251
H 5.36099 2.80874 2.41268
H 4.82856 4.21493 2.2003
O 2.84238 4.23473 5.0511
H 3.45057 4.58442 5.83337
H 3.52531 3.79438 4.54593
O 0.0316533 1.13785 2.14617
H 0.0465365 1.80732 2.82555
H 46.4531 0.437023 2.40769
O 2.37773 6.97321 4.77428
H 2.31017 6.00758 4.66313
H 1.49879 7.25858 5.08994
O 6.00816 2.25559 43.0712
H 5.56752 1.3933 42.9145
H 6.42157 2.39967 42.2737
O 0.180725 3.2441 4.03175
H 1.03374 3.5103 4.32374
H 46.4618 3.67601 4.62896
O 2.77949 8.78277 2.50744
H 2.8105 8.16684 3.27886
H 2.33434 8.33244 1.78026
O 47.241 8.6503 6.23234
H 46.3859 8.44479 6.60586
H 47.4879 9.51227 6.59326
O 35.1045 17.9414 38.6231
H 35.4965 17.0834 38.7131
H 34.2854 17.8149 39.1401
O 4.00087 43.9037 0.485768
H 3.78308 42.9639 0.652913
H 3.12025 0.213795 0.359425
O 5.94199 1.80103 1.09836
H 6.01798 2.20109 0.275357
H 5.38726 1.05706 0.830881
O 13.0731 43.0044 8.75742
H 12.4583 42.3293 9.08746
H 13.9129 42.8169 9.17124
O 4.44282 5.45621 7.17855
H 5.34641 5.13268 7.29722
H 4.58851 6.35605 6.91639
O 41.0289 34.7189 21.6879
H 40.334 34.9328 21.1086
H 41.7049 34.5743 21.0799
O 9.89457 1.10248 3.93067
H 9.24711 0.424078 3.7099
H 10.7601 0.670501 3.93524
O 9.59367 7.0649 43.1548
H 9.50382 6.60143 42.3351
H 9.47169 7.97085 42.8692
O 14.5072 5.42325 5.52458
H 14.285 6.39977 5.56306
H 13.6358 5.01878 5.46372
O 11.5979 4.8672 5.15765
H 10.9166 5.07648 5.76072
H 11.2306 4.34033 4.51446
O 9.66818 1.84727 6.97235
H 9.76438 1.47794 6.09706
H 9.61457 1.1192 7.59269
O 7.41152 4.67698 4.24036
H 8.18966 4.27441 3.82069
H 6.66482 4.40379 3.66285
O 13.4926 43.2095 5.82922
H 13.0972 42.8793 6.64623
H 14.1482 43.9125 6.03551
O 12.1158 3.03504 7.7584
H 11.2244 2.70028 7.6384
H 12.0598 3.95713 7.51202
O 7.01126 4.2 6.89902
H 7.16792 3.24288 7.11719
H 7.23971 4.23099 5.8174
O 9.54821 3.78507 2.7478
H 9.71284 2.85222 3.00362
H 9.89241 3.92831 1.90065
O 10.4454 4.76017 45.3793
H 11.0751 4.91448 44.7117
H 9.90901 5.54963 45.4096
O 12.0517 43.5842 3.54643
H 12.8111 43.7298 2.96281
H 12.4027 43.5676 4.44917
O 14.9373 0.917424 7.26607
H 15.8466 1.18252 7.11245
H 14.4327 1.69504 7.49371
O 11.7675 1.6161 10.2976
H 12.3034 0.904739 9.95842
H 11.9844 2.36505 9.79999
O 9.75002 5.31195 7.10861
H 9.64142 6.17156 7.51193
H 8.89639 4.83902 7.25427
O 8.95072 44.6693 9.62514
H 9.55013 1.06627 10.2164
H 8.05719 44.7757 9.98788
O 17.7089 0.964739 6.73602
H 18.3896 1.59605 6.48237
H 18.2185 0.160642 7.0097
O 19.6272 5.59689 0.498433
H 20.3216 5.14474 1.00527
H 18.7956 5.32221 0.884449
O 22.5593 4.37181 2.39868
H 23.2747 4.54853 1.71881
H 22.686 5.141 3.01769
O 21.9006 2.76949 4.55435
H 22.1478 3.0732 3.64372
H 22.2447 1.87548 4.60368
O 20.5765 43.3219 6.74622
H 21.3337 43.4437 6.17845
H 20.6074 42.3893 6.88919
O 19.4883 3.10566 5.74071
H 19.8478 3.62499 6.49116
H 20.272 2.92225 5.17837
O 19.8128 5.50828 42.7733
H 19.9804 4.568 42.7796
H 19.7007 5.71251 43.6897
O 22.9094 0.264757 5.18847
H 23.4703 0.603513 5.9398
H 23.6026 0.00186742 4.55751
O 20.9876 3.7155 8.58869
H 21.0793 2.8088 8.76538
H 20.6584 4.10069 9.38146
O 16.8508 4.63286 4.44311
H 16.06 4.81829 4.96237
H 17.5027 4.11188 4.94906
O 17.2744 4.8005 1.71442
H 16.6776 5.50566 1.45968
H 17.166 4.81015 2.718
O 21.4279 6.12875 40.5678
H 20.7489 6.09953 41.2334
H 21.6109 6.99781 40.2683
O 25.1153 43.8659 2.92506
H 25.9621 0.109741 3.00733
H 25.0359 43.3906 2.10628
O 24.4464 0.80592 7.52317
H 24.9536 1.55618 7.77148
H 24.9682 44.1016 7.89924
O 23.069 4.45503 6.82945
H 22.3059 4.33797 7.48215
H 22.8301 3.73855 6.27712
O 21.2009 0.899201 9.23322
H 20.4207 0.496697 9.5073
H 21.4677 0.402236 8.44269
O 27.6542 0.698245 3.22496
H 28.4619 0.464811 2.91501
H 27.7547 1.45595 3.84955
O 27.7162 7.82654 1.26353
H 27.2194 8.59871 1.49037
H 28.6906 8.20739 1.17845
O 29.2884 9.5315 -0.564415
H 29.5883 8.89677 43.9591
H 29.9694 10.1823 -0.554198
O 29.2129 6.86771 8.07827
H 28.9843 6.13801 8.6714
H 28.9235 6.58068 7.21339
O 28.3101 2.76379 5.98243
H 29.1918 2.46288 6.17743
H 27.83 2.85373 6.80969
O 28.1183 5.7291 5.63846
H 28.484 4.93059 5.4138
H 27.9496 6.21993 4.86333
O 29.8037 41.8171 0.901734
H 29.0221 41.3625 0.40827
H 30.4706 41.8662 45.4177
O 30.9103 1.91585 6.75146
H 31.6678 1.68862 6.23003
H 30.9993 1.30792 7.50082
O 25.3207 5.36321 7.77989
H 24.4293 5.1112 7.41858
H 25.842 5.77229 7.09988
O 24.3997 4.45512 0.307764
H 24.9012 3.74735 -0.168903
H 25.039 5.11465 45.1697
O 26.6539 5.71921 44.809
H 26.8 6.03351 43.9038
H 27.1123 6.35904 45.4093
O 30.2915 44.1103 2.54305
H 31.1948 44.0805 2.97143
H 30.1071 43.1783 2.27693
O 28.0846 40.5969 43.789
H 28.3661 39.8592 43.3001
H 27.1316 40.6679 43.5327
O 36.2733 35.4268 20.9869
H 36.9465 36.022 21.3735
H 36.7733 34.609 20.9855
O 30.6318 9.14366 9.04167
H 30.2198 8.33106 8.76311
H 30.1226 9.75595 8.6097
O 26.3106 3.01717 8.3818
H 26.022 4.01876 8.19281
H 26.7652 2.96233 9.25845
